
#======================================================================
# CRYSTAL DATA
#----------------------------------------------------------------------
data_VESTA_phase_1

_chemical_name_common                  ' CYSTEINE-FREE PSEUDO-WILD TYPE AT CRY'
_cell_length_a                         61.500000
_cell_length_b                         61.500000
_cell_length_c                         95.900002
_cell_angle_alpha                      90.000000
_cell_angle_beta                       90.000000
_cell_angle_gamma                      120.000000
_cell_volume                           314122.812552
_space_group_name_H-M_alt              'P 32 2 1'
_space_group_IT_number                 154

loop_
_space_group_symop_operation_xyz
   'x, y, z'
   '-y, x-y, z+2/3'
   '-x+y, -x, z+1/3'
   'y, x, -z'
   'x-y, -y, -z+1/3'
   '-x, -x+y, -z+2/3'

loop_
   _atom_site_label
   _atom_site_occupancy
   _atom_site_fract_x
   _atom_site_fract_y
   _atom_site_fract_z
   _atom_site_adp_type
   _atom_site_U_iso_or_equiv
   _atom_site_type_symbol
   N          1.0    -0.301788    -0.059614     0.092330    Uiso 11.800000 N
   CA         1.0    -0.300040    -0.034623     0.091464    Uiso 13.980000 C
   C          1.0    -0.324333    -0.036087     0.096396    Uiso  8.030000 C
   O          1.0    -0.344704    -0.055333     0.094676    Uiso  6.790000 O
   CB         1.0    -0.294073    -0.024672     0.076531    Uiso 14.560000 C
   CG         1.0    -0.287381     0.002403     0.075301    Uiso 16.910000 C
   SD         1.0    -0.260150     0.020410     0.064601    Uiso 11.150000 S
   CE         1.0    -0.235399     0.027864     0.076834    Uiso 17.240000 C
   D1         1.0    -0.295598    -0.063331     0.083017    Uiso 10.330000 D
   H2         0.3000 -0.290657    -0.059595     0.100495    Uiso 10.330000 H
   D2         0.7000 -0.290657    -0.059595     0.100495    Uiso 10.330000 D
   D3         1.0    -0.320337    -0.073395     0.094081    Uiso 10.330000 D
   DA         1.0    -0.284711    -0.021330     0.098086    Uiso 12.950000 D
   DB2        1.0    -0.278349    -0.026362     0.072631    Uiso 13.650000 D
   DB3        1.0    -0.310564    -0.035768     0.070024    Uiso 13.650000 D
   DG2        1.0    -0.303149     0.003192     0.070744    Uiso 16.459999 D
   DG3        1.0    -0.283373     0.010777     0.085666    Uiso 16.459999 D
   DE1        1.0    -0.218009     0.043391     0.072714    Uiso 16.860001 D
   DE2        1.0    -0.240035     0.033421     0.086667    Uiso 16.860001 D
   DE3        1.0    -0.233424     0.011359     0.078387    Uiso 16.860001 D
   N          1.0    -0.321980    -0.015640     0.102549    Uiso  8.010000 N
   CA         1.0    -0.343529    -0.014251     0.107690    Uiso  7.940000 C
   C          1.0    -0.336307     0.013331     0.108274    Uiso  6.820000 C
   O          1.0    -0.315473     0.030023     0.104363    Uiso  9.580000 O
   CB         1.0    -0.352078    -0.027056     0.121935    Uiso  9.100000 C
   CG         1.0    -0.331267    -0.016166     0.132728    Uiso  8.210000 C
   OD1        1.0    -0.317588     0.006703     0.133979    Uiso  9.070000 O
   ND2        1.0    -0.328682    -0.032558     0.140559    Uiso 11.850000 N
   H          0.0400 -0.305263     0.000394     0.104134    Uiso  6.610000 H
   D          0.9600 -0.305263     0.000394     0.104134    Uiso  6.610000 D
   DA         1.0    -0.359044    -0.023883     0.100359    Uiso  6.530000 D
   DB2        1.0    -0.367445    -0.024653     0.125699    Uiso  7.920000 D
   DB3        1.0    -0.358422    -0.046996     0.120850    Uiso  7.920000 D
   HD21       0.7000 -0.314941    -0.026343     0.147963    Uiso 11.220000 H
   DD21       0.3000 -0.314941    -0.026343     0.147963    Uiso 11.220000 D
   HD22       0.6600 -0.340437    -0.051352     0.139172    Uiso 11.220000 H
   DD22       0.3400 -0.340437    -0.051352     0.139172    Uiso 11.220000 D
   N          1.0    -0.353778     0.018063     0.113300    Uiso  8.910000 N
   CA         1.0    -0.349775     0.043598     0.113206    Uiso  8.830000 C
   C          1.0    -0.327838     0.060609     0.122654    Uiso  7.960000 C
   O          1.0    -0.312616     0.082370     0.119140    Uiso  6.960000 O
   CB         1.0    -0.374084     0.043466     0.117388    Uiso  4.240000 C
   CG1        1.0    -0.369928     0.070185     0.118535    Uiso  5.560000 C
   CG2        1.0    -0.384639     0.029835     0.131163    Uiso 13.000000 C
   CD1        1.0    -0.358585     0.086463     0.105792    Uiso  6.440000 C
   H          0.1400 -0.370459     0.004863     0.117419    Uiso  7.690000 H
   D          0.8600 -0.370459     0.004863     0.117419    Uiso  7.690000 D
   DA         1.0    -0.344928     0.051014     0.102643    Uiso  7.590000 D
   DB         1.0    -0.388091     0.033534     0.109358    Uiso  2.090000 D
   DG12       1.0    -0.388175     0.068683     0.120266    Uiso  3.680000 D
   DG13       1.0    -0.357696     0.079723     0.127347    Uiso  3.680000 D
   DG21       1.0    -0.399961     0.032914     0.134292    Uiso 12.600000 D
   DG22       1.0    -0.391820     0.009782     0.129797    Uiso 12.600000 D
   DG23       1.0    -0.369931     0.037496     0.139047    Uiso 12.600000 D
   DD11       1.0    -0.356404     0.104939     0.107648    Uiso  4.730000 D
   DD12       1.0    -0.340266     0.088435     0.103665    Uiso  4.730000 D
   DD13       1.0    -0.370883     0.077770     0.096855    Uiso  4.730000 D
   N          1.0    -0.325649     0.050939     0.134678    Uiso  8.530000 N
   CA         1.0    -0.304845     0.065847     0.144178    Uiso  7.250000 C
   C          1.0    -0.279630     0.073677     0.137305    Uiso 10.780000 C
   O          1.0    -0.263656     0.096096     0.135981    Uiso 13.690000 O
   CB         1.0    -0.307729     0.051202     0.157598    Uiso 14.330000 C
   CG         1.0    -0.326185     0.051559     0.167703    Uiso 11.640000 C
   CD1        1.0    -0.350728     0.032032     0.168037    Uiso  8.980000 C
   CD2        1.0    -0.319011     0.071499     0.176817    Uiso  9.230000 C
   CE1        1.0    -0.367800     0.032295     0.177255    Uiso  7.630000 C
   CE2        1.0    -0.336020     0.071856     0.186077    Uiso 15.380000 C
   CZ         1.0    -0.360457     0.052216     0.186275    Uiso 10.500000 C
   H          0.0000 -0.337877     0.033215     0.138046    Uiso  6.630000 H
   D          1.0    -0.337877     0.033215     0.138046    Uiso  6.630000 D
   DA         1.0    -0.305127     0.082877     0.146910    Uiso  5.100000 D
   DB2        1.0    -0.314110     0.031675     0.154971    Uiso 13.590000 D
   DB3        1.0    -0.289499     0.059370     0.162760    Uiso 13.590000 D
   DD1        1.0    -0.356546     0.016429     0.160998    Uiso  7.180000 D
   DD2        1.0    -0.299919     0.086952     0.176702    Uiso  7.470000 D
   DE1        1.0    -0.386903     0.016917     0.177391    Uiso  5.550000 D
   DE2        1.0    -0.330251     0.087459     0.193147    Uiso 14.850000 D
   DZ         1.0    -0.373801     0.052423     0.193492    Uiso  9.000000 D
   N          1.0    -0.275580     0.055370     0.132947    Uiso  9.530000 N
   CA         1.0    -0.251901     0.061623     0.126179    Uiso  7.870000 C
   C          1.0    -0.247811     0.077282     0.113113    Uiso  9.760000 C
   O          1.0    -0.226296     0.092378     0.109139    Uiso  8.070000 O
   CB         1.0    -0.251302     0.037683     0.122571    Uiso 11.120000 C
   CG         1.0    -0.250564     0.023094     0.135105    Uiso 15.040000 C
   CD         1.0    -0.250985    -0.000901     0.131038    Uiso 15.950000 C
   OE1        1.0    -0.253180    -0.006722     0.118441    Uiso 20.150000 O
   OE2        1.0    -0.249103    -0.013951     0.140434    Uiso 13.830000 O
   H          0.0000 -0.288016     0.036613     0.133864    Uiso  8.380000 H
   D          1.0    -0.288016     0.036613     0.133864    Uiso  8.380000 D
   DA         1.0    -0.236632     0.072682     0.133395    Uiso  6.400000 D
   DB2        1.0    -0.268086     0.025254     0.116637    Uiso 10.290000 D
   DB3        1.0    -0.234600     0.042697     0.116345    Uiso 10.290000 D
   DG2        1.0    -0.233331     0.034698     0.140934    Uiso 15.010000 D
   DG3        1.0    -0.266887     0.018156     0.141623    Uiso 15.010000 D
   N          1.0    -0.268204     0.074090     0.106407    Uiso 12.850000 N
   CA         1.0    -0.266258     0.088454     0.093904    Uiso  9.490000 C
   C          1.0    -0.255316     0.116223     0.097272    Uiso  9.040000 C
   O          1.0    -0.237309     0.132465     0.090588    Uiso 11.430000 O
   CB         1.0    -0.292158     0.077564     0.087199    Uiso  7.100000 C
   CG         1.0    -0.293515     0.090557     0.074122    Uiso 13.270000 C
   SD         1.0    -0.326054     0.078258     0.069628    Uiso  8.010000 S
   CE         1.0    -0.323116     0.092622     0.053099    Uiso  9.520000 C
   H          0.4300 -0.286186     0.061735     0.109358    Uiso 11.660000 H
   D          0.5700 -0.286186     0.061735     0.109358    Uiso 11.660000 D
   DA         1.0    -0.253854     0.086595     0.086459    Uiso  7.630000 D
   DB2        1.0    -0.298693     0.058055     0.084467    Uiso  4.760000 D
   DB3        1.0    -0.305032     0.078352     0.094738    Uiso  4.760000 D
   DG2        1.0    -0.284956     0.110666     0.075968    Uiso 12.170000 D
   DG3        1.0    -0.284210     0.086858     0.065509    Uiso 12.170000 D
   DE1        1.0    -0.341003     0.091157     0.050419    Uiso  7.660000 D
   DE2        1.0    -0.308458     0.112280     0.053777    Uiso  7.660000 D
   DE3        1.0    -0.318158     0.082896     0.045341    Uiso  7.660000 D
   N          1.0    -0.265876     0.122063     0.107690    Uiso  8.490000 N
   CA         1.0    -0.256786     0.148274     0.111319    Uiso 12.340000 C
   C          1.0    -0.231211     0.160272     0.118431    Uiso 14.070000 C
   O          1.0    -0.215941     0.182747     0.116522    Uiso 11.550000 O
   CB         1.0    -0.275782     0.150283     0.120673    Uiso 12.470000 C
   CG         1.0    -0.296740     0.151879     0.112998    Uiso 12.520000 C
   CD1        1.0    -0.318353     0.145627     0.122811    Uiso  5.200000 C
   CD2        1.0    -0.286935     0.177959     0.106741    Uiso 11.390000 C
   H          0.5100 -0.280417     0.109370     0.113665    Uiso  6.680000 H
   D          0.4900 -0.280417     0.109370     0.113665    Uiso  6.680000 D
   DA         1.0    -0.254844     0.158695     0.101756    Uiso 11.300000 D
   DB2        1.0    -0.284557     0.133741     0.127336    Uiso 11.460000 D
   DB3        1.0    -0.265751     0.167125     0.127055    Uiso 11.460000 D
   DG         1.0    -0.303637     0.138248     0.104509    Uiso 11.520000 D
   DD11       1.0    -0.334790     0.142022     0.116731    Uiso  2.730000 D
   DD12       1.0    -0.322272     0.129010     0.128796    Uiso  2.730000 D
   DD13       1.0    -0.313109     0.161417     0.129797    Uiso  2.730000 D
   DD21       1.0    -0.302156     0.178672     0.101329    Uiso 10.170000 D
   DD22       1.0    -0.279746     0.191947     0.115031    Uiso 10.170000 D
   DD23       1.0    -0.271891     0.181902     0.099379    Uiso 10.170000 D
   N          1.0    -0.226235     0.145833     0.126731    Uiso 14.840000 N
   CA         1.0    -0.201330     0.155578     0.132842    Uiso 12.170000 C
   C          1.0    -0.180988     0.165661     0.121674    Uiso 13.790000 C
   O          1.0    -0.159762     0.183235     0.124375    Uiso  9.330000 O
   CB         1.0    -0.200430     0.135037     0.141425    Uiso  9.180000 C
   CG         1.0    -0.174187     0.139393     0.144543    Uiso 15.640000 C
   CD         1.0    -0.159899     0.161173     0.154491    Uiso 16.049999 C
   NE         1.0    -0.133521     0.176889     0.150445    Uiso 16.160000 N
   CZ         1.0    -0.113889     0.182202     0.158558    Uiso 18.230000 C
   NH1        1.0    -0.116582     0.173302     0.171457    Uiso 24.990000 N
   NH2        1.0    -0.090936     0.196791     0.153615    Uiso 20.230000 N
   H          0.0000 -0.238862     0.127733     0.129401    Uiso 14.900000 H
   D          1.0    -0.238862     0.127733     0.129401    Uiso 14.900000 D
   DA         1.0    -0.197708     0.171049     0.139819    Uiso 11.700000 D
   DB2        1.0    -0.209280     0.133760     0.151467    Uiso  8.110000 D
   DB3        1.0    -0.210793     0.117237     0.135908    Uiso  8.110000 D
   DG2        1.0    -0.176176     0.122570     0.149538    Uiso 15.870000 D
   DG3        1.0    -0.163334     0.143148     0.134970    Uiso 15.870000 D
   DD2        1.0    -0.168516     0.172946     0.154574    Uiso 16.350000 D
   DD3        1.0    -0.161100     0.153437     0.164815    Uiso 16.350000 D
   HE         0.4900 -0.130113     0.178729     0.139975    Uiso 16.490000 H
   DE         0.5100 -0.130113     0.178729     0.139975    Uiso 16.490000 D
   HH11       0.4400 -0.133934     0.161981     0.175555    Uiso 27.080000 H
   DH11       0.5600 -0.133934     0.161981     0.175555    Uiso 27.080000 D
   HH12       1.0    -0.101041     0.177752     0.177286    Uiso 27.080000 H
   DH12       0.0000 -0.101041     0.177752     0.177286    Uiso 27.080000 D
   HH21       0.3700 -0.088500     0.203776     0.143729    Uiso 21.379999 H
   DH21       0.6300 -0.088500     0.203776     0.143729    Uiso 21.379999 D
   HH22       0.5100 -0.075725     0.201035     0.159705    Uiso 21.379999 H
   DH22       0.4900 -0.075725     0.201035     0.159705    Uiso 21.379999 D
   N          1.0    -0.187102     0.154864     0.109119    Uiso 17.209999 N
   CA         1.0    -0.168863     0.163764     0.097752    Uiso 11.020000 C
   C          1.0    -0.164534     0.188943     0.092371    Uiso 12.160000 C
   O          1.0    -0.143148     0.207325     0.091537    Uiso 13.510000 O
   CB         1.0    -0.177836     0.144031     0.086031    Uiso  9.110000 C
   CG1        1.0    -0.174340     0.121950     0.090171    Uiso 15.760000 C
   CG2        1.0    -0.163757     0.155278     0.072516    Uiso 13.380000 C
   CD1        1.0    -0.189177     0.098649     0.081015    Uiso 11.850000 C
   H          0.2600 -0.204317     0.140238     0.106501    Uiso 17.100000 H
   D          0.7400 -0.204317     0.140238     0.106501    Uiso 17.100000 D
   DA         1.0    -0.151059     0.166667     0.101652    Uiso  9.670000 D
   DB         1.0    -0.197706     0.137102     0.084300    Uiso  7.380000 D
   DG12       1.0    -0.154488     0.127865     0.089107    Uiso 15.360000 D
   DG13       1.0    -0.180180     0.116806     0.100985    Uiso 15.360000 D
   DG21       1.0    -0.159657     0.141721     0.067740    Uiso 12.500000 D
   DG22       1.0    -0.175641     0.158826     0.065540    Uiso 12.500000 D
   DG23       1.0    -0.146163     0.172514     0.074664    Uiso 12.500000 D
   DD11       1.0    -0.185802     0.083741     0.084550    Uiso 10.670000 D
   DD12       1.0    -0.209163     0.092303     0.081776    Uiso 10.670000 D
   DD13       1.0    -0.183125     0.103306     0.070201    Uiso 10.670000 D
   N          1.0    -0.184856     0.190088     0.088669    Uiso 12.510000 N
   CA         1.0    -0.182598     0.213108     0.082944    Uiso 10.790000 C
   C          1.0    -0.170930     0.234719     0.093383    Uiso 10.280000 C
   O          1.0    -0.156977     0.256480     0.089337    Uiso 10.600000 O
   CB         1.0    -0.208366     0.208432     0.078387    Uiso 11.750000 C
   CG         1.0    -0.218152     0.191853     0.065613    Uiso 18.420000 C
   OD1        1.0    -0.202686     0.190558     0.057698    Uiso 15.200000 O
   OD2        1.0    -0.241280     0.180231     0.063434    Uiso 14.120000 O
   H          0.2800 -0.202853     0.175556     0.089410    Uiso 12.240000 H
   D          0.7200 -0.202853     0.175556     0.089410    Uiso 12.240000 D
   DA         1.0    -0.170647     0.218440     0.073736    Uiso 10.180000 D
   DB2        1.0    -0.221724     0.199082     0.086834    Uiso 11.330000 D
   DB3        1.0    -0.207008     0.226401     0.076104    Uiso 11.330000 D
   N          1.0    -0.176592     0.229217     0.106835    Uiso 14.670000 N
   CA         1.0    -0.169006     0.248876     0.117346    Uiso  8.980000 C
   C          1.0    -0.143695     0.256443     0.124020    Uiso 14.280000 C
   O          1.0    -0.129262     0.278673     0.127076    Uiso  8.340000 O
   CB         1.0    -0.189169     0.240258     0.128671    Uiso 11.090000 C
   CG         1.0    -0.214583     0.235282     0.123290    Uiso 11.600000 C
   CD         1.0    -0.213097     0.257832     0.115907    Uiso 13.990000 C
   OE1        1.0    -0.228682     0.254077     0.106512    Uiso 11.060000 O
   OE2        1.0    -0.196253     0.279293     0.119421    Uiso  6.920000 O
   H          0.4200 -0.186448     0.211455     0.110735    Uiso 14.760000 H
   D          0.5800 -0.186448     0.211455     0.110735    Uiso 14.760000 D
   DA         1.0    -0.167287     0.265680     0.112497    Uiso  7.940000 D
   DB2        1.0    -0.191851     0.222796     0.133134    Uiso 10.460000 D
   DB3        1.0    -0.182863     0.254659     0.136742    Uiso 10.460000 D
   DG2        1.0    -0.221678     0.219792     0.115876    Uiso 11.070000 D
   DG3        1.0    -0.227644     0.230363     0.131977    Uiso 11.070000 D
   N          1.0    -0.137870     0.238662     0.126398    Uiso 14.740000 N
   CA         1.0    -0.114872     0.244464     0.133635    Uiso 15.720000 C
   C          1.0    -0.117634     0.244726     0.149381    Uiso 10.550000 C
   O          1.0    -0.138385     0.235094     0.155127    Uiso 11.400000 O
   H          0.4400 -0.148552     0.220355     0.123457    Uiso 14.860000 H
   D          0.5600 -0.148552     0.220355     0.123457    Uiso 14.860000 D
   DA2        1.0    -0.109505     0.230513     0.131038    Uiso 16.030001 D
   DA3        1.0    -0.099857     0.262883     0.130340    Uiso 16.030001 D
   N          1.0    -0.096082     0.256123     0.156420    Uiso 14.080000 N
   CA         1.0    -0.095351     0.257813     0.171634    Uiso 14.020000 C
   C          1.0    -0.071610     0.281621     0.176004    Uiso 13.660000 C
   O          1.0    -0.050824     0.284006     0.173511    Uiso 18.450001 O
   CB         1.0    -0.096181     0.234756     0.178256    Uiso 10.130000 C
   CG         1.0    -0.093841     0.235338     0.194221    Uiso 12.060000 C
   CD1        1.0    -0.117137     0.233104     0.200749    Uiso  6.250000 C
   CD2        1.0    -0.089359     0.214741     0.199800    Uiso 12.280000 C
   H          0.0000 -0.078795     0.264422     0.151842    Uiso 13.630000 H
   D          1.0    -0.078795     0.264422     0.151842    Uiso 13.630000 D
   DA         1.0    -0.111651     0.258677     0.175409    Uiso 13.570000 D
   DB2        1.0    -0.114176     0.218440     0.175587    Uiso  8.890000 D
   DB3        1.0    -0.080972     0.232653     0.173876    Uiso  8.890000 D
   DG         1.0    -0.078004     0.253288     0.197465    Uiso 11.210000 D
   DD11       1.0    -0.115385     0.233517     0.212074    Uiso  4.230000 D
   DD12       1.0    -0.119472     0.248726     0.197339    Uiso  4.230000 D
   DD13       1.0    -0.133425     0.215455     0.197569    Uiso  4.230000 D
   DD21       1.0    -0.083333     0.218891     0.210656    Uiso 11.470000 D
   DD22       1.0    -0.106810     0.196848     0.199091    Uiso 11.470000 D
   DD23       1.0    -0.074665     0.214178     0.193742    Uiso 11.470000 D
   N          1.0    -0.074598     0.299158     0.182427    Uiso 12.370000 N
   CA         1.0    -0.053641     0.321332     0.188695    Uiso 13.570000 C
   C          1.0    -0.062067     0.325031     0.202950    Uiso 16.760000 C
   O          1.0    -0.082298     0.324506     0.204285    Uiso 12.240000 O
   CB         1.0    -0.044885     0.344859     0.179633    Uiso 10.810000 C
   CG         1.0    -0.044812     0.340127     0.163980    Uiso 18.590000 C
   CD         1.0    -0.022570     0.361100     0.155857    Uiso 27.950001 C
   NE         1.0    -0.029676     0.375539     0.146628    Uiso 30.049999 N
   CZ         1.0    -0.047162     0.365606     0.136680    Uiso 36.419998 C
   NH1        1.0    -0.051944     0.380627     0.128942    Uiso 28.330000 N
   NH2        1.0    -0.059990     0.340991     0.134313    Uiso 39.400002 N
   H          0.0000 -0.091404     0.298520     0.183512    Uiso 11.290000 H
   D          1.0    -0.091404     0.298520     0.183512    Uiso 11.290000 D
   DA         1.0    -0.037815     0.318253     0.190144    Uiso 12.720000 D
   DB2        1.0    -0.057510     0.352163     0.181468    Uiso  9.400000 D
   DB3        1.0    -0.025906     0.358753     0.182792    Uiso  9.400000 D
   DG2        1.0    -0.044202     0.322910     0.162354    Uiso 18.740000 D
   DG3        1.0    -0.062030     0.338212     0.159621    Uiso 18.740000 D
   DD2        1.0    -0.008736     0.374393     0.163198    Uiso 29.980000 D
   DD3        1.0    -0.013990     0.352764     0.149444    Uiso 29.980000 D
   HE         0.0000 -0.016540     0.394071     0.145418    Uiso 32.490002 H
   DE         1.0    -0.016540     0.394071     0.145418    Uiso 32.490002 D
   HH11       1.0    -0.042279     0.399534     0.130621    Uiso 30.430000 H
   DH11       0.0000 -0.042279     0.399534     0.130621    Uiso 30.430000 D
   HH12       1.0    -0.065322     0.373286     0.121340    Uiso 30.430000 H
   DH12       0.0000 -0.065322     0.373286     0.121340    Uiso 30.430000 D
   HH21       0.7400 -0.056639     0.329124     0.140131    Uiso 43.720001 H
   DH21       0.2600 -0.056639     0.329124     0.140131    Uiso 43.720001 D
   HH22       0.1100 -0.073243     0.333931     0.126638    Uiso 43.720001 H
   DH22       0.8900 -0.073243     0.333931     0.126638    Uiso 43.720001 D
   N          1.0    -0.046643     0.328693     0.213545    Uiso 20.420000 N
   CA         1.0    -0.053711     0.329387     0.227956    Uiso 18.209999 C
   C          1.0    -0.044931     0.355824     0.233149    Uiso 14.550000 C
   O          1.0    -0.049731     0.358941     0.245235    Uiso 12.700000 O
   CB         1.0    -0.043237     0.316807     0.237425    Uiso 13.150000 C
   CG         1.0    -0.053736     0.288719     0.235047    Uiso 11.400000 C
   CD1        1.0    -0.041039     0.279349     0.244902    Uiso 16.080000 C
   CD2        1.0    -0.082152     0.273773     0.236987    Uiso 14.440000 C
   H          0.0300 -0.028929     0.331472     0.212408    Uiso 21.379999 H
   D          0.9700 -0.028929     0.331472     0.212408    Uiso 21.379999 D
   DA         1.0    -0.074080     0.319023     0.228769    Uiso 18.730000 D
   DB2        1.0    -0.023015     0.326064     0.235829    Uiso 12.660000 D
   DB3        1.0    -0.047054     0.319417     0.248176    Uiso 12.660000 D
   DG         1.0    -0.049426     0.285827     0.224421    Uiso 10.570000 D
   DD11       1.0    -0.048487     0.259315     0.243233    Uiso 16.180000 D
   DD12       1.0    -0.020876     0.289432     0.242952    Uiso 16.180000 D
   DD13       1.0    -0.044581     0.282541     0.255632    Uiso 16.180000 D
   DD21       1.0    -0.088865     0.253908     0.235204    Uiso 14.200000 D
   DD22       1.0    -0.086870     0.276401     0.247571    Uiso 14.200000 D
   DD23       1.0    -0.091064     0.280307     0.229572    Uiso 14.200000 D
   N          1.0    -0.032353     0.374769     0.224379    Uiso 21.020000 N
   CA         1.0    -0.024071     0.400699     0.227977    Uiso 14.440000 C
   C          1.0    -0.034913     0.411307     0.217507    Uiso 12.120000 C
   O          1.0    -0.036384     0.405731     0.205035    Uiso 16.730000 O
   CB         1.0     0.004707     0.416208     0.228311    Uiso 21.889999 C
   CG         1.0     0.015617     0.444465     0.229207    Uiso 19.670000 C
   CD         1.0     0.041784     0.457646     0.235704    Uiso 27.299999 C
   CE         1.0     0.059896     0.450943     0.228623    Uiso 36.750000 C
   NZ         1.0     0.058414     0.427849     0.234672    Uiso 44.340000 N
   H          0.1200 -0.027470     0.372666     0.214525    Uiso 21.840000 H
   D          0.8800 -0.027470     0.372666     0.214525    Uiso 21.840000 D
   DA         1.0    -0.031262     0.401375     0.238228    Uiso 13.940000 D
   DB2        1.0     0.011279     0.410425     0.237383    Uiso 22.879999 D
   DB3        1.0     0.011853     0.412190     0.218842    Uiso 22.879999 D
   DG2        1.0     0.016996     0.451938     0.218748    Uiso 20.219999 D
   DG3        1.0     0.003450     0.448521     0.235652    Uiso 20.219999 D
   DD2        1.0     0.049612     0.477887     0.234932    Uiso 29.370001 D
   DD3        1.0     0.040318     0.452145     0.246622    Uiso 29.370001 D
   DE2        1.0     0.055452     0.447714     0.217539    Uiso 40.709999 D
   DE3        1.0     0.079046     0.466415     0.230021    Uiso 40.709999 D
   HZ1A       0.0000  0.075043     0.427774     0.232774    Uiso 49.820000 H
   DZ1B       1.0     0.075043     0.427774     0.232774    Uiso 49.820000 D
   HZ2A       0.6400  0.055554     0.427398     0.245381    Uiso 49.820000 H
   DZ2B       0.3600  0.055554     0.427398     0.245381    Uiso 49.820000 D
   HZ3A       1.0     0.043568     0.411945     0.230209    Uiso 49.820000 H
   DZ3B       0.0000  0.043568     0.411945     0.230209    Uiso 49.820000 D
   N          1.0    -0.042948     0.426196     0.222690    Uiso 21.620001 N
   CA         1.0    -0.055152     0.436617     0.214066    Uiso 18.190001 C
   C          1.0    -0.040786     0.446456     0.200416    Uiso 15.670000 C
   O          1.0    -0.017656     0.459674     0.200374    Uiso 18.450001 O
   CB         1.0    -0.057060     0.457646     0.221741    Uiso 17.670000 C
   CG1        1.0    -0.074786     0.447169     0.234348    Uiso 12.380000 C
   CG2        1.0    -0.065614     0.470977     0.211636    Uiso 14.250000 C
   CD1        1.0    -0.078761     0.466602     0.242201    Uiso 17.110001 C
   H          0.0000 -0.041256     0.431304     0.232930    Uiso 22.650000 H
   D          1.0    -0.041256     0.431304     0.232930    Uiso 22.650000 D
   DA         1.0    -0.074111     0.421822     0.211553    Uiso 18.530001 D
   DB         1.0    -0.038433     0.471259     0.225558    Uiso 17.900000 D
   DG12       1.0    -0.093106     0.432449     0.230761    Uiso 11.560000 D
   DG13       1.0    -0.067063     0.439396     0.241773    Uiso 11.560000 D
   DG21       1.0    -0.066929     0.485810     0.217111    Uiso 13.800000 D
   DG22       1.0    -0.052100     0.479145     0.203148    Uiso 13.800000 D
   DG23       1.0    -0.083946     0.457534     0.207402    Uiso 13.800000 D
   DD11       1.0    -0.081645     0.461777     0.253223    Uiso 17.230000 D
   DD12       1.0    -0.062262     0.485097     0.240897    Uiso 17.230000 D
   DD13       1.0    -0.095188     0.466659     0.237988    Uiso 17.230000 D
   N          1.0    -0.054435     0.440034     0.188768    Uiso 17.910000 N
   CA         1.0    -0.043255     0.448315     0.175013    Uiso 16.959999 C
   C          1.0    -0.060395     0.454098     0.166254    Uiso 20.330000 C
   O          1.0    -0.081245     0.449310     0.170508    Uiso 15.450000 O
   CB         1.0    -0.038757     0.428562     0.167776    Uiso 19.969999 C
   CG         1.0    -0.062243     0.403834     0.164345    Uiso 16.520000 C
   CD1        1.0    -0.073544     0.399704     0.151269    Uiso 20.260000 C
   CD2        1.0    -0.072881     0.384476     0.174033    Uiso 13.270000 C
   CE1        1.0    -0.094854     0.377116     0.148057    Uiso 16.790001 C
   CE2        1.0    -0.094222     0.361795     0.170852    Uiso 16.730000 C
   CZ         1.0    -0.105050     0.358284     0.157849    Uiso 18.280001 C
   OH         1.0    -0.126208     0.335903     0.154585    Uiso 16.430000 O
   H          0.3000 -0.073527     0.429201     0.188549    Uiso 17.889999 H
   D          0.7000 -0.073527     0.429201     0.188549    Uiso 17.889999 D
   DA         1.0    -0.025155     0.465457     0.176066    Uiso 16.760000 D
   DB2        1.0    -0.028958     0.436486     0.157984    Uiso 20.370001 D
   DB3        1.0    -0.027011     0.424413     0.174513    Uiso 20.370001 D
   DD1        1.0    -0.065678     0.414330     0.143468    Uiso 20.709999 D
   DD2        1.0    -0.064494     0.387105     0.184221    Uiso 12.330000 D
   DE1        1.0    -0.103415     0.374206     0.137889    Uiso 16.549999 D
   DE2        1.0    -0.102354     0.346962     0.178496    Uiso 16.469999 D
   HH         0.7200 -0.128199     0.322816     0.161154    Uiso 16.120001 H
   DH         0.2800 -0.128199     0.322816     0.161154    Uiso 16.120001 D
   N          1.0    -0.051319     0.464706     0.153928    Uiso 17.920000 N
   CA         1.0    -0.065764     0.470677     0.144178    Uiso 18.700001 C
   C          1.0    -0.077125     0.450493     0.132999    Uiso 13.020000 C
   O          1.0    -0.063615     0.445123     0.126002    Uiso 14.800000 O
   CB         1.0    -0.049444     0.496325     0.137389    Uiso 20.510000 C
   CG         1.0    -0.041016     0.518255     0.147306    Uiso 19.660000 C
   CD         1.0    -0.031556     0.542833     0.139391    Uiso 18.209999 C
   CE         1.0    -0.024458     0.564801     0.149204    Uiso 16.680000 C
   NZ         1.0    -0.011284     0.589003     0.141591    Uiso 23.430000 N
   H          0.5800 -0.033899     0.469400     0.150372    Uiso 17.879999 H
   D          0.4200 -0.033899     0.469400     0.150372    Uiso 17.879999 D
   DA         1.0    -0.080979     0.471109     0.149757    Uiso 18.809999 D
   DB2        1.0    -0.032721     0.496926     0.133082    Uiso 20.990000 D
   DB3        1.0    -0.060108     0.498672     0.129026    Uiso 20.990000 D
   DG2        1.0    -0.056859     0.515251     0.153792    Uiso 19.959999 D
   DG3        1.0    -0.025780     0.519588     0.153740    Uiso 19.959999 D
   DD2        1.0    -0.014925     0.546795     0.133385    Uiso 18.230000 D
   DD3        1.0    -0.046375     0.541293     0.132477    Uiso 18.230000 D
   DE2        1.0    -0.041391     0.563130     0.153886    Uiso 16.400000 D
   DE3        1.0    -0.011896     0.564951     0.157265    Uiso 16.400000 D
   HZ1A       0.2400 -0.009656     0.603479     0.147952    Uiso 24.490000 H
   DZ1B       0.7600 -0.009656     0.603479     0.147952    Uiso 24.490000 D
   HZ2A       0.0100  0.006544     0.592627     0.138745    Uiso 24.490000 H
   DZ2B       0.9900  0.006544     0.592627     0.138745    Uiso 24.490000 D
   HZ3A       0.0000 -0.021307     0.588177     0.132665    Uiso 24.490000 H
   DZ3B       1.0    -0.021307     0.588177     0.132665    Uiso 24.490000 D
   N          1.0    -0.101838     0.439471     0.131289    Uiso 15.200000 N
   CA         1.0    -0.113870     0.421521     0.120089    Uiso 13.800000 C
   C          1.0    -0.106270     0.435096     0.106084    Uiso 14.850000 C
   O          1.0    -0.093405     0.458191     0.105312    Uiso 15.020000 O
   CB         1.0    -0.142400     0.407420     0.121809    Uiso 11.950000 C
   CG         1.0    -0.153527     0.424450     0.120673    Uiso 13.750000 C
   OD1        1.0    -0.139132     0.447582     0.121392    Uiso 13.280000 O
   OD2        1.0    -0.176737     0.414649     0.119161    Uiso 14.500000 O
   H          0.9700 -0.113713     0.442550     0.137305    Uiso 14.360000 H
   D          0.0300 -0.113713     0.442550     0.137305    Uiso 14.360000 D
   DA         1.0    -0.107585     0.407815     0.120391    Uiso 12.690000 D
   DB2        1.0    -0.150806     0.393113     0.113717    Uiso 10.470000 D
   DB3        1.0    -0.147110     0.398521     0.132029    Uiso 10.470000 D
   N          1.0    -0.114272     0.420263     0.094895    Uiso  9.780000 N
   CA         1.0    -0.108582     0.430440     0.080786    Uiso 10.610000 C
   C          1.0    -0.110481     0.454154     0.079284    Uiso 15.000000 C
   O          1.0    -0.093382     0.473230     0.073799    Uiso 13.180000 O
   CB         1.0    -0.126279     0.410331     0.070493    Uiso  9.610000 C
   OG1        1.0    -0.121909     0.389508     0.070817    Uiso 12.400000 O
   CG2        1.0    -0.122173     0.420883     0.055821    Uiso 22.160000 C
   H          0.1100 -0.124625     0.401149     0.095249    Uiso  8.800000 H
   D          0.8900 -0.124625     0.401149     0.095249    Uiso  8.800000 D
   DA         1.0    -0.089456     0.435228     0.078220    Uiso  9.790000 D
   DB         1.0    -0.145652     0.403909     0.073455    Uiso  8.600000 D
   HG1A       0.0800 -0.136167     0.374619     0.066687    Uiso 11.940000 H
   DG1B       0.9200 -0.136167     0.374619     0.066687    Uiso 11.940000 D
   DG21       1.0    -0.122783     0.407176     0.048386    Uiso 23.650000 D
   DG22       1.0    -0.136752     0.425352     0.053172    Uiso 23.650000 D
   DG23       1.0    -0.103847     0.437894     0.055143    Uiso 23.650000 D
   N          1.0    -0.131144     0.453347     0.084206    Uiso 19.110001 N
   CA         1.0    -0.135650     0.474319     0.082392    Uiso 26.709999 C
   C          1.0    -0.120155     0.496268     0.092184    Uiso 16.299999 C
   O          1.0    -0.121747     0.515458     0.091172    Uiso 19.209999 O
   CB         1.0    -0.163570     0.465307     0.084488    Uiso 13.850000 C
   CG         1.0    -0.173625     0.477718     0.074748    Uiso 29.059999 C
   CD         1.0    -0.183459     0.463448     0.061139    Uiso 18.129999 C
   OE1        1.0    -0.203015     0.461570     0.056040    Uiso 13.720000 O
   OE2        1.0    -0.171719     0.453985     0.055613    Uiso  9.550000 O
   H          0.0000 -0.145100     0.438476     0.089462    Uiso 20.270000 H
   D          1.0    -0.145100     0.438476     0.089462    Uiso 20.270000 D
   DA         1.0    -0.130766     0.481323     0.071734    Uiso 29.389999 D
   DB2        1.0    -0.174245     0.445160     0.082558    Uiso 13.950000 D
   DB3        1.0    -0.166667     0.469269     0.095187    Uiso 13.950000 D
   DG2        1.0    -0.188934     0.478675     0.079868    Uiso 32.209999 D
   DG3        1.0    -0.158492     0.496569     0.072266    Uiso 32.209999 D
   N          1.0    -0.105442     0.494053     0.101558    Uiso 13.680000 N
   CA         1.0    -0.090166     0.514068     0.111215    Uiso 11.150000 C
   C          1.0    -0.101839     0.512153     0.125397    Uiso 11.520000 C
   O          1.0    -0.091679     0.530197     0.133478    Uiso 12.250000 O
   H          0.3700 -0.103805     0.478431     0.102685    Uiso 12.860000 H
   D          0.6300 -0.103805     0.478431     0.102685    Uiso 12.860000 D
   DA2        1.0    -0.072361     0.514556     0.112716    Uiso  9.820000 D
   DA3        1.0    -0.085934     0.531962     0.106595    Uiso  9.820000 D
   N          1.0    -0.122665     0.490955     0.128692    Uiso 20.090000 N
   CA         1.0    -0.136078     0.487707     0.141758    Uiso 15.250000 C
   C          1.0    -0.127858     0.475333     0.152697    Uiso 17.500000 C
   O          1.0    -0.124184     0.457965     0.149548    Uiso 13.100000 O
   CB         1.0    -0.164410     0.471822     0.139464    Uiso 18.889999 C
   CG         1.0    -0.175247     0.483482     0.129860    Uiso 19.150000 C
   CD1        1.0    -0.193681     0.468987     0.120183    Uiso 18.270000 C
   CD2        1.0    -0.167316     0.508905     0.130590    Uiso 23.549999 C
   CE1        1.0    -0.203706     0.479539     0.111423    Uiso 19.370001 C
   CE2        1.0    -0.177258     0.519588     0.121903    Uiso 18.280001 C
   CZ         1.0    -0.195406     0.504887     0.112362    Uiso 32.970001 C
   OH         1.0    -0.205066     0.515908     0.103790    Uiso 28.559999 O
   H          0.4600 -0.130786     0.475559     0.122393    Uiso 20.510000 H
   D          0.5400 -0.130786     0.475559     0.122393    Uiso 20.510000 D
   DA         1.0    -0.131886     0.505976     0.145773    Uiso 14.700000 D
   DB2        1.0    -0.168395     0.453966     0.134938    Uiso 19.070000 D
   DB3        1.0    -0.173787     0.468743     0.149527    Uiso 19.070000 D
   DD1        1.0    -0.200215     0.449122     0.119421    Uiso 18.330000 D
   DD2        1.0    -0.153059     0.520508     0.138067    Uiso 24.660000 D
   DE1        1.0    -0.217974     0.468011     0.103946    Uiso 19.639999 D
   DE2        1.0    -0.170883     0.539397     0.122550    Uiso 18.340000 D
   HH         0.0400 -0.196099     0.534102     0.105396    Uiso 30.680000 H
   DH         0.9600 -0.196099     0.534102     0.105396    Uiso 30.680000 D
   N          1.0    -0.125253     0.484252     0.165617    Uiso 16.570000 N
   CA         1.0    -0.116974     0.474338     0.176953    Uiso 12.580000 C
   C          1.0    -0.135009     0.446268     0.178913    Uiso 13.370000 C
   O          1.0    -0.157835     0.437819     0.180133    Uiso  8.570000 O
   CB         1.0    -0.114455     0.488871     0.190363    Uiso 10.770000 C
   CG         1.0    -0.092491     0.515401     0.189810    Uiso  9.060000 C
   CD1        1.0    -0.095985     0.536055     0.190290    Uiso 11.320000 C
   CD2        1.0    -0.068202     0.519720     0.188486    Uiso 11.950000 C
   CE1        1.0    -0.075728     0.560276     0.189675    Uiso 10.100000 C
   CE2        1.0    -0.047951     0.543734     0.187819    Uiso  9.420000 C
   CZ         1.0    -0.051777     0.563918     0.188382    Uiso  7.540000 C
   OH         1.0    -0.031362     0.587708     0.187704    Uiso 14.850000 O
   H          0.0000 -0.128614     0.498277     0.168537    Uiso 16.040001 H
   D          1.0    -0.128614     0.498277     0.168537    Uiso 16.040001 D
   DA         1.0    -0.098591     0.476892     0.174398    Uiso 11.250000 D
   DB2        1.0    -0.131486     0.489866     0.191844    Uiso  9.070000 D
   DB3        1.0    -0.111600     0.479426     0.199196    Uiso  9.070000 D
   DD1        1.0    -0.114689     0.533314     0.191270    Uiso  9.730000 D
   DD2        1.0    -0.065159     0.503854     0.188027    Uiso 10.490000 D
   DE1        1.0    -0.078638     0.576179     0.190113    Uiso  8.270000 D
   DE2        1.0    -0.029148     0.546738     0.186838    Uiso  7.460000 D
   HH         0.2900 -0.017148     0.586900     0.183627    Uiso 13.970000 H
   DH         0.7100 -0.017148     0.586900     0.183627    Uiso 13.970000 D
   N          1.0    -0.124425     0.431923     0.179309    Uiso 16.530001 N
   CA         1.0    -0.138680     0.404585     0.179268    Uiso 12.170000 C
   C          1.0    -0.126160     0.394991     0.189331    Uiso 13.460000 C
   O          1.0    -0.104523     0.408866     0.193460    Uiso 16.930000 O
   CB         1.0    -0.140069     0.394165     0.164491    Uiso  8.970000 C
   OG1        1.0    -0.148291     0.406500     0.154950    Uiso 11.250000 O
   CG2        1.0    -0.158053     0.365644     0.163678    Uiso 12.980000 C
   H          0.3000 -0.105478     0.439020     0.179716    Uiso 16.549999 H
   D          0.7000 -0.105478     0.439020     0.179716    Uiso 16.549999 D
   DA         1.0    -0.157738     0.398370     0.182855    Uiso 11.320000 D
   DB         1.0    -0.121430     0.397882     0.161509    Uiso  7.470000 D
   HG1A       0.5700 -0.136918     0.424694     0.155335    Uiso 10.210000 H
   DG1B       0.4300 -0.136918     0.424694     0.155335    Uiso 10.210000 D
   DG21       1.0    -0.158379     0.359204     0.153052    Uiso 12.290000 D
   DG22       1.0    -0.151658     0.356124     0.170759    Uiso 12.290000 D
   DG23       1.0    -0.176892     0.361363     0.166667    Uiso 12.290000 D
   N          1.0    -0.139923     0.371108     0.193325    Uiso 10.200000 N
   CA         1.0    -0.130174     0.359711     0.202960    Uiso  9.050000 C
   C          1.0    -0.143608     0.331509     0.200343    Uiso 10.640000 C
   O          1.0    -0.165698     0.319981     0.196474    Uiso 10.800000 O
   CB         1.0    -0.133249     0.365756     0.218300    Uiso 11.970000 C
   CG1        1.0    -0.121438     0.355655     0.228592    Uiso 13.390000 C
   CG2        1.0    -0.160748     0.355148     0.222106    Uiso 16.389999 C
   CD1        1.0    -0.093382     0.371051     0.229364    Uiso 17.870001 C
   H          0.4400 -0.157921     0.359241     0.190165    Uiso  8.940000 H
   D          0.5600 -0.157921     0.359241     0.190165    Uiso  8.940000 D
   DA         1.0    -0.110280     0.367240     0.200854    Uiso  7.560000 D
   DB         1.0    -0.123697     0.386128     0.219363    Uiso 11.070000 D
   DG12       1.0    -0.128585     0.355768     0.238999    Uiso 12.760000 D
   DG13       1.0    -0.126598     0.336522     0.225756    Uiso 12.760000 D
   DG21       1.0    -0.162188     0.359748     0.232920    Uiso 16.370001 D
   DG22       1.0    -0.169024     0.363278     0.215307    Uiso 16.370001 D
   DG23       1.0    -0.170752     0.334814     0.220813    Uiso 16.370001 D
   DD11       1.0    -0.086431     0.362677     0.236882    Uiso 18.139999 D
   DD12       1.0    -0.085403     0.371596     0.219134    Uiso 18.139999 D
   DD13       1.0    -0.087879     0.390090     0.232638    Uiso 18.139999 D
   N          1.0    -0.129900     0.320488     0.202303    Uiso  9.740000 N
   CA         1.0    -0.141515     0.293225     0.202220    Uiso 13.900000 C
   C          1.0    -0.149314     0.282147     0.187735    Uiso 14.400000 C
   O          1.0    -0.135470     0.291591     0.177505    Uiso 13.670000 O
   H          0.4900 -0.110983     0.329800     0.203993    Uiso  8.010000 H
   D          0.5100 -0.110983     0.329800     0.203993    Uiso  8.010000 D
   DA2        1.0    -0.128368     0.287780     0.206297    Uiso 13.000000 D
   DA3        1.0    -0.158079     0.285038     0.208862    Uiso 13.000000 D
   N          1.0    -0.171911     0.261700     0.186828    Uiso  8.920000 N
   CA         1.0    -0.181117     0.248069     0.173741    Uiso  9.310000 C
   C          1.0    -0.196598     0.257757     0.166667    Uiso  8.180000 C
   O          1.0    -0.219506     0.244201     0.164846    Uiso 11.940000 O
   CB         1.0    -0.196449     0.219454     0.176150    Uiso 12.060000 C
   CG1        1.0    -0.180966     0.210648     0.184544    Uiso 10.960000 C
   CG2        1.0    -0.203954     0.205973     0.162218    Uiso 12.900000 C
   CD1        1.0    -0.194930     0.182428     0.188716    Uiso 11.170000 C
   H          0.3300 -0.184349     0.254321     0.194868    Uiso  7.380000 H
   D          0.6700 -0.184349     0.254321     0.194868    Uiso  7.380000 D
   DA         1.0    -0.165173     0.252087     0.167088    Uiso  7.850000 D
   DB         1.0    -0.213389     0.215004     0.181989    Uiso 11.150000 D
   DG12       1.0    -0.164772     0.214028     0.178288    Uiso  9.830000 D
   DG13       1.0    -0.174531     0.221632     0.194096    Uiso  9.830000 D
   DG21       1.0    -0.208846     0.186464     0.163563    Uiso 12.150000 D
   DG22       1.0    -0.219972     0.206912     0.158078    Uiso 12.150000 D
   DG23       1.0    -0.188043     0.215323     0.155127    Uiso 12.150000 D
   DD11       1.0    -0.182561     0.178710     0.195170    Uiso 10.080000 D
   DD12       1.0    -0.211821     0.177978     0.194586    Uiso 10.080000 D
   DD13       1.0    -0.199807     0.170786     0.179393    Uiso 10.080000 D
   N          1.0    -0.184016     0.281490     0.162030    Uiso 11.070000 N
   CA         1.0    -0.195882     0.292586     0.153896    Uiso 12.300000 C
   C          1.0    -0.214031     0.297881     0.161780    Uiso  5.360000 C
   O          1.0    -0.232401     0.296360     0.155669    Uiso 11.260000 O
   H          0.0000 -0.165399     0.293488     0.163928    Uiso 10.510000 H
   D          1.0    -0.165399     0.293488     0.163928    Uiso 10.510000 D
   DA2        1.0    -0.181213     0.310348     0.149642    Uiso 11.990000 D
   DA3        1.0    -0.205906     0.280213     0.145179    Uiso 11.990000 D
   N          1.0    -0.209350     0.304284     0.175170    Uiso  8.730000 N
   CA         1.0    -0.225754     0.309785     0.183637    Uiso 11.760000 C
   C          1.0    -0.216969     0.337761     0.182719    Uiso 15.420000 C
   O          1.0    -0.197983     0.353327     0.189018    Uiso 14.260000 O
   CB         1.0    -0.226064     0.301881     0.198737    Uiso  7.240000 C
   CG         1.0    -0.241950     0.307701     0.208091    Uiso 13.820000 C
   ND1        1.0    -0.267295     0.291516     0.209853    Uiso  9.850000 N
   CD2        1.0    -0.236176     0.327998     0.216131    Uiso 12.660000 C
   CE1        1.0    -0.276446     0.301505     0.218602    Uiso  7.840000 C
   NE2        1.0    -0.257938     0.323661     0.222565    Uiso  7.930000 N
   H          0.0500 -0.194335     0.305730     0.180498    Uiso  7.180000 H
   D          0.9500 -0.194335     0.305730     0.180498    Uiso  7.180000 D
   DA         1.0    -0.244904     0.299289     0.179654    Uiso 10.810000 D
   DB2        1.0    -0.233583     0.281640     0.199008    Uiso  5.390000 D
   DB3        1.0    -0.206923     0.311513     0.202783    Uiso  5.390000 D
   HD1A       0.3500 -0.277373     0.274449     0.205129    Uiso  8.520000 H
   DD1B       0.6500 -0.277373     0.274449     0.205129    Uiso  8.520000 D
   DD2        1.0    -0.217875     0.344502     0.217299    Uiso 11.890000 D
   DE1        1.0    -0.295763     0.293018     0.221929    Uiso  6.110000 D
   HE2A       0.3700 -0.259554     0.335583     0.229312    Uiso  6.220000 H
   DE2B       0.6300 -0.259554     0.335583     0.229312    Uiso  6.220000 D
   N          1.0    -0.230869     0.344108     0.174951    Uiso 10.430000 N
   CA         1.0    -0.224674     0.370188     0.173501    Uiso 12.700000 C
   C          1.0    -0.229010     0.379857     0.187256    Uiso 17.959999 C
   O          1.0    -0.250118     0.369868     0.192616    Uiso  9.670000 O
   CB         1.0    -0.240351     0.372591     0.161895    Uiso 12.270000 C
   CG         1.0    -0.236855     0.398802     0.159392    Uiso 12.670000 C
   CD1        1.0    -0.210125     0.417822     0.154814    Uiso 10.300000 C
   CD2        1.0    -0.256084     0.397319     0.148839    Uiso 11.150000 C
   H          0.1200 -0.246387     0.331640     0.169497    Uiso  9.440000 H
   D          0.8800 -0.246387     0.331640     0.169497    Uiso  9.440000 D
   DA         1.0    -0.204879     0.381585     0.170800    Uiso 12.170000 D
   DB2        1.0    -0.236249     0.366226     0.152145    Uiso 11.650000 D
   DB3        1.0    -0.260049     0.360349     0.164533    Uiso 11.650000 D
   DG         1.0    -0.240441     0.405580     0.169121    Uiso 12.130000 D
   DD11       1.0    -0.208626     0.436073     0.153177    Uiso  9.290000 D
   DD12       1.0    -0.196895     0.419437     0.162875    Uiso  9.290000 D
   DD13       1.0    -0.205774     0.411532     0.145126    Uiso  9.290000 D
   DD21       1.0    -0.253433     0.416020     0.147139    Uiso 10.310000 D
   DD22       1.0    -0.253630     0.389902     0.139005    Uiso 10.310000 D
   DD23       1.0    -0.274960     0.384964     0.152812    Uiso 10.310000 D
   N          1.0    -0.209037     0.399478     0.192949    Uiso 12.640000 N
   CA         1.0    -0.211232     0.410406     0.205984    Uiso 10.450000 C
   C          1.0    -0.221389     0.428205     0.203555    Uiso 16.770000 C
   O          1.0    -0.239484     0.425934     0.210354    Uiso 18.139999 O
   CB         1.0    -0.185740     0.424056     0.213326    Uiso  9.260000 C
   CG         1.0    -0.177491     0.407158     0.220490    Uiso 15.000000 C
   CD1        1.0    -0.149699     0.421765     0.223993    Uiso 16.490000 C
   CD2        1.0    -0.192527     0.395329     0.233671    Uiso 13.350000 C
   H          0.3200 -0.191358     0.408040     0.188851    Uiso 12.050000 H
   D          0.6800 -0.191358     0.408040     0.188851    Uiso 12.050000 D
   DA         1.0    -0.224425     0.395272     0.212710    Uiso  9.420000 D
   DB2        1.0    -0.171505     0.435096     0.205567    Uiso  7.990000 D
   DB3        1.0    -0.186245     0.436542     0.221199    Uiso  7.990000 D
   DG         1.0    -0.180681     0.392062     0.213357    Uiso 14.880000 D
   DD11       1.0    -0.144262     0.409354     0.229082    Uiso 16.670000 D
   DD12       1.0    -0.138850     0.429219     0.214441    Uiso 16.670000 D
   DD13       1.0    -0.146012     0.437237     0.230970    Uiso 16.670000 D
   DD21       1.0    -0.192552     0.377848     0.235610    Uiso 12.890000 D
   DD22       1.0    -0.183555     0.408265     0.242336    Uiso 12.890000 D
   DD23       1.0    -0.211733     0.391517     0.232346    Uiso 12.890000 D
   N          1.0    -0.210076     0.445986     0.193930    Uiso 11.780000 N
   CA         1.0    -0.217760     0.464537     0.191489    Uiso 16.400000 C
   C          1.0    -0.208230     0.476929     0.177370    Uiso 20.129999 C
   O          1.0    -0.191504     0.475390     0.171123    Uiso 16.930000 O
   CB         1.0    -0.207965     0.484646     0.202845    Uiso 11.610000 C
   OG1        1.0    -0.214018     0.503629     0.199217    Uiso 13.050000 O
   CG2        1.0    -0.179584     0.496531     0.204212    Uiso 12.120000 C
   H          0.0000 -0.195657     0.447995     0.187746    Uiso 10.690000 H
   D          1.0    -0.195657     0.447995     0.187746    Uiso 10.690000 D
   DA         1.0    -0.238188     0.455224     0.191573    Uiso 16.230000 D
   DB         1.0    -0.216604     0.476084     0.212773    Uiso 10.490000 D
   HG1A       0.0000 -0.216684     0.511045     0.207611    Uiso 12.220000 H
   DG1B       1.0    -0.216684     0.511045     0.207611    Uiso 12.220000 D
   DG21       1.0    -0.172788     0.510839     0.212335    Uiso 11.100000 D
   DG22       1.0    -0.174931     0.482130     0.206954    Uiso 11.100000 D
   DG23       1.0    -0.170699     0.505131     0.194326    Uiso 11.100000 D
   N          1.0    -0.218971     0.489659     0.172552    Uiso 21.570000 N
   CA         1.0    -0.210000     0.505488     0.160195    Uiso 17.150000 C
   C          1.0    -0.195185     0.533295     0.163970    Uiso 23.309999 C
   O          1.0    -0.190875     0.549329     0.154971    Uiso 22.110001 O
   CB         1.0    -0.232052     0.500211     0.150653    Uiso 17.090000 C
   CG         1.0    -0.241184     0.476648     0.141779    Uiso 20.860001 C
   CD         1.0    -0.263793     0.471428     0.132915    Uiso 16.110001 C
   CE         1.0    -0.274045     0.446794     0.125021    Uiso 11.270000 C
   NZ         1.0    -0.298074     0.439809     0.117722    Uiso 16.670000 N
   H          0.0000 -0.234040     0.489472     0.177140    Uiso 22.559999 H
   D          1.0    -0.234040     0.489472     0.177140    Uiso 22.559999 D
   DA         1.0    -0.197572     0.500944     0.154387    Uiso 17.250000 D
   DB2        1.0    -0.247804     0.497846     0.157004    Uiso 17.180000 D
   DB3        1.0    -0.226294     0.516021     0.143604    Uiso 17.180000 D
   DG2        1.0    -0.226150     0.479332     0.134751    Uiso 21.709999 D
   DG3        1.0    -0.246337     0.460519     0.148536    Uiso 21.709999 D
   DD2        1.0    -0.278647     0.470339     0.139589    Uiso 16.000000 D
   DD3        1.0    -0.258172     0.486411     0.125261    Uiso 16.000000 D
   DE2        1.0    -0.260302     0.448784     0.117211    Uiso 10.200000 D
   DE3        1.0    -0.277507     0.431773     0.132269    Uiso 10.200000 D
   HZ1A       0.0000 -0.304354     0.422892     0.112487    Uiso 16.680000 H
   DZ1B       1.0    -0.304354     0.422892     0.112487    Uiso 16.680000 D
   HZ2A       0.2200 -0.311487     0.437894     0.124980    Uiso 16.680000 H
   DZ2B       0.7800 -0.311487     0.437894     0.124980    Uiso 16.680000 D
   HZ3A       0.3500 -0.295164     0.453760     0.110599    Uiso 16.680000 H
   DZ3B       0.6500 -0.295164     0.453760     0.110599    Uiso 16.680000 D
   N          1.0    -0.186977     0.539434     0.177610    Uiso 26.150000 N
   CA         1.0    -0.172631     0.565233     0.182594    Uiso 28.370001 C
   C          1.0    -0.144576     0.576010     0.179883    Uiso 25.889999 C
   O          1.0    -0.135222     0.562360     0.180717    Uiso 22.209999 O
   CB         1.0    -0.177003     0.566603     0.198153    Uiso 26.020000 C
   OG         1.0    -0.166667     0.591876     0.202564    Uiso 30.440001 O
   H          0.0000 -0.190505     0.526460     0.185201    Uiso 28.500000 H
   D          1.0    -0.190505     0.526460     0.185201    Uiso 28.500000 D
   DA         1.0    -0.179217     0.576386     0.177161    Uiso 31.160000 D
   DB2        1.0    -0.197137     0.556708     0.200176    Uiso 28.340000 D
   DB3        1.0    -0.168238     0.557760     0.203972    Uiso 28.340000 D
   HG         0.7800 -0.174808     0.592683     0.211104    Uiso 33.650002 H
   DG         0.2200 -0.174808     0.592683     0.211104    Uiso 33.650002 D
   N          1.0    -0.130709     0.600363     0.176609    Uiso 26.570000 N
   CA         1.0    -0.103375     0.611778     0.174721    Uiso 18.750000 C
   C          1.0    -0.089275     0.613994     0.188090    Uiso 19.570000 C
   O          1.0    -0.067954     0.616735     0.187391    Uiso 13.300000 O
   CB         1.0    -0.095401     0.637971     0.168861    Uiso 30.840000 C
   CG         1.0    -0.118904     0.637370     0.164502    Uiso 39.480000 C
   CD         1.0    -0.139524     0.618050     0.173313    Uiso 26.450001 C
   DA         1.0    -0.099346     0.601170     0.167077    Uiso 19.520000 D
   DB2        1.0    -0.086161     0.651865     0.177078    Uiso 34.029999 D
   DB3        1.0    -0.082781     0.642008     0.160028    Uiso 34.029999 D
   DG2        1.0    -0.116907     0.655771     0.166667    Uiso 44.400002 D
   DG3        1.0    -0.122469     0.632451     0.153479    Uiso 44.400002 D
   DD2        1.0    -0.141755     0.626367     0.182845    Uiso 28.770000 D
   DD3        1.0    -0.156830     0.608737     0.167276    Uiso 28.770000 D
   N          1.0    -0.100248     0.613187     0.200165    Uiso 18.760000 N
   CA         1.0    -0.086465     0.619289     0.213263    Uiso 16.870001 C
   C          1.0    -0.085069     0.596814     0.218790    Uiso 16.420000 C
   O          1.0    -0.104296     0.576311     0.220490    Uiso 17.080000 O
   CB         1.0    -0.098820     0.628076     0.223983    Uiso 21.700001 C
   OG         1.0    -0.094914     0.652147     0.220437    Uiso 26.090000 O
   H          0.7400 -0.118600     0.608418     0.201208    Uiso 19.190001 H
   D          0.2600 -0.118600     0.608418     0.201208    Uiso 19.190001 D
   DA         1.0    -0.067319     0.634460     0.211532    Uiso 16.920000 D
   DB2        1.0    -0.118960     0.614820     0.224108    Uiso 22.709999 D
   DB3        1.0    -0.090785     0.628958     0.234244    Uiso 22.709999 D
   HG         0.2400 -0.085509     0.657949     0.211824    Uiso 27.980000 H
   DG         0.7600 -0.085509     0.657949     0.211824    Uiso 27.980000 D
   N          1.0    -0.062098     0.600870     0.221626    Uiso 18.920000 N
   CA         1.0    -0.058637     0.581061     0.227706    Uiso 19.040001 C
   C          1.0    -0.069291     0.574808     0.242430    Uiso 26.360001 C
   O          1.0    -0.079815     0.552916     0.246695    Uiso 23.799999 O
   CB         1.0    -0.030750     0.588966     0.227810    Uiso 21.090000 C
   CG         1.0    -0.021995     0.570377     0.223858    Uiso 24.920000 C
   CD1        1.0     0.002423     0.577719     0.231564    Uiso 26.940001 C
   CD2        1.0    -0.041313     0.542701     0.226517    Uiso 21.680000 C
   H          0.0000 -0.045934     0.617392     0.219864    Uiso 19.440001 H
   D          1.0    -0.045934     0.617392     0.219864    Uiso 19.440001 D
   DA         1.0    -0.068749     0.564219     0.221345    Uiso 19.590000 D
   DB2        1.0    -0.021163     0.604756     0.220636    Uiso 22.049999 D
   DB3        1.0    -0.023802     0.595349     0.238322    Uiso 22.049999 D
   DG         1.0    -0.017727     0.572443     0.212742    Uiso 26.650000 D
   DD11       1.0     0.008874     0.564669     0.228853    Uiso 29.070000 D
   DD12       1.0     0.016646     0.596701     0.228571    Uiso 29.070000 D
   DD13       1.0    -0.000793     0.577043     0.242774    Uiso 29.070000 D
   DD21       1.0    -0.032962     0.534590     0.233254    Uiso 22.750000 D
   DD22       1.0    -0.057981     0.540974     0.231481    Uiso 22.750000 D
   DD23       1.0    -0.046395     0.532863     0.216558    Uiso 22.750000 D
   N          1.0    -0.066801     0.593772     0.250376    Uiso 24.450001 N
   CA         1.0    -0.076766     0.588966     0.264538    Uiso 20.870001 C
   C          1.0    -0.105132     0.571842     0.264579    Uiso 22.469999 C
   O          1.0    -0.115508     0.557497     0.274507    Uiso 20.420000 O
   CB         1.0    -0.069607     0.613656     0.271973    Uiso 26.170000 C
   CG         1.0    -0.041432     0.630723     0.273234    Uiso 28.950001 C
   OD1        1.0    -0.029308     0.626743     0.282067    Uiso 31.129999 O
   ND2        1.0    -0.030873     0.649988     0.264454    Uiso 50.529999 N
   H          0.0700 -0.058228     0.612154     0.247383    Uiso 25.170000 H
   D          0.9300 -0.058228     0.612154     0.247383    Uiso 25.170000 D
   DA         1.0    -0.068565     0.579578     0.270315    Uiso 20.879999 D
   DB2        1.0    -0.077256     0.623626     0.266216    Uiso 27.240000 D
   DB3        1.0    -0.077313     0.609431     0.282505    Uiso 27.240000 D
   HD21       0.2700 -0.012006     0.662192     0.264871    Uiso 56.480000 H
   DD21       0.7300 -0.012006     0.662192     0.264871    Uiso 56.480000 D
   HD22       0.8900 -0.041642     0.652579     0.257290    Uiso 56.480000 H
   DD22       0.1100 -0.041642     0.652579     0.257290    Uiso 56.480000 D
   N          1.0    -0.118033     0.572837     0.253609    Uiso 16.650000 N
   CA         1.0    -0.145063     0.555882     0.252723    Uiso 11.970000 C
   C          1.0    -0.151083     0.529859     0.248009    Uiso 18.340000 C
   O          1.0    -0.170909     0.511214     0.251690    Uiso 12.750000 O
   CB         1.0    -0.157111     0.566322     0.242826    Uiso 15.050000 C
   H          0.0000 -0.110425     0.584703     0.245308    Uiso 15.800000 H
   D          1.0    -0.110425     0.584703     0.245308    Uiso 15.800000 D
   DA         1.0    -0.153346     0.554080     0.262994    Uiso 10.180000 D
   DB1        1.0    -0.177322     0.556014     0.244537    Uiso 13.890000 D
   DB2        1.0    -0.149757     0.586168     0.245037    Uiso 13.890000 D
   DB3        1.0    -0.152786     0.564012     0.232096    Uiso 13.890000 D
   N          1.0    -0.134239     0.528263     0.239969    Uiso 20.020000 N
   CA         1.0    -0.137035     0.503873     0.236601    Uiso 23.379999 C
   C          1.0    -0.135421     0.490842     0.249751    Uiso 14.880000 C
   O          1.0    -0.152080     0.469231     0.252608    Uiso 15.930000 O
   CB         1.0    -0.117077     0.507008     0.225985    Uiso 18.360001 C
   H          0.6300 -0.118773     0.543227     0.235715    Uiso 20.290001 H
   D          0.3700 -0.118773     0.543227     0.235715    Uiso 20.290001 D
   DA         1.0    -0.155484     0.492081     0.231960    Uiso 24.320000 D
   DB1        1.0    -0.119330     0.488683     0.223535    Uiso 18.299999 D
   DB2        1.0    -0.119231     0.515514     0.216496    Uiso 18.299999 D
   DB3        1.0    -0.098449     0.519063     0.230355    Uiso 18.299999 D
   N          1.0    -0.115484     0.503854     0.257999    Uiso 16.440001 N
   CA         1.0    -0.113050     0.493339     0.271180    Uiso 18.190001 C
   C          1.0    -0.136864     0.483369     0.279898    Uiso 17.990000 C
   O          1.0    -0.146639     0.462228     0.285216    Uiso 11.370000 O
   CB         1.0    -0.090521     0.513129     0.279429    Uiso 19.309999 C
   CG         1.0    -0.066498     0.512266     0.277385    Uiso 28.309999 C
   CD         1.0    -0.050059     0.529990     0.265904    Uiso 40.709999 C
   CE         1.0    -0.025947     0.551676     0.271795    Uiso 28.889999 C
   NZ         1.0    -0.010855     0.542870     0.279669    Uiso 29.940001 N
   H          0.0000 -0.100911     0.521391     0.255841    Uiso 16.120001 H
   D          1.0    -0.100911     0.521391     0.255841    Uiso 16.120001 D
   DA         1.0    -0.109934     0.477718     0.268980    Uiso 18.209999 D
   DB2        1.0    -0.086934     0.531718     0.276373    Uiso 19.559999 D
   DB3        1.0    -0.095075     0.510200     0.290503    Uiso 19.559999 D
   DG2        1.0    -0.056022     0.517673     0.287145    Uiso 30.360001 D
   DG3        1.0    -0.071195     0.493246     0.274507    Uiso 30.360001 D
   DD2        1.0    -0.044948     0.519757     0.258552    Uiso 45.230000 D
   DD3        1.0    -0.060293     0.537782     0.260564    Uiso 45.230000 D
   DE2        1.0    -0.014494     0.563299     0.263161    Uiso 31.049999 D
   DE3        1.0    -0.030567     0.562698     0.278845    Uiso 31.049999 D
   HZ1A       0.7700  0.008141     0.555920     0.278626    Uiso 32.320000 H
   DZ1B       0.2300  0.008141     0.555920     0.278626    Uiso 32.320000 D
   HZ2A       0.2200 -0.015775     0.540899     0.290159    Uiso 32.320000 H
   DZ2B       0.7800 -0.015775     0.540899     0.290159    Uiso 32.320000 D
   HZ3A       0.3900 -0.014390     0.525653     0.275716    Uiso 32.320000 H
   DZ3B       0.6100 -0.014390     0.525653     0.275716    Uiso 32.320000 D
   N          1.0    -0.146233     0.498615     0.281639    Uiso 12.230000 N
   CA         1.0    -0.168899     0.490974     0.289857    Uiso 13.000000 C
   C          1.0    -0.190066     0.465063     0.285466    Uiso 12.690000 C
   O          1.0    -0.200108     0.447808     0.294028    Uiso 14.610000 O
   CB         1.0    -0.177051     0.510670     0.288480    Uiso 13.060000 C
   OG         1.0    -0.190878     0.510463     0.300347    Uiso  7.120000 O
   H          0.0000 -0.138372     0.516321     0.277656    Uiso 10.480000 H
   D          1.0    -0.138372     0.516321     0.277656    Uiso 10.480000 D
   DA         1.0    -0.164683     0.490072     0.300817    Uiso 11.410000 D
   DB2        1.0    -0.160334     0.529145     0.287500    Uiso 11.490000 D
   DB3        1.0    -0.188770     0.506614     0.279262    Uiso 11.490000 D
   HG         0.7800 -0.195869     0.523212     0.299252    Uiso  4.350000 H
   DG         0.2200 -0.195869     0.523212     0.299252    Uiso  4.350000 D
   N          1.0    -0.197099     0.462021     0.272077    Uiso 11.700000 N
   CA         1.0    -0.216787     0.437669     0.266915    Uiso 10.880000 C
   C          1.0    -0.211280     0.416667     0.270659    Uiso  9.660000 C
   O          1.0    -0.227617     0.397019     0.275946    Uiso 14.730000 O
   CB         1.0    -0.219631     0.438551     0.251106    Uiso 13.680000 C
   CG         1.0    -0.232215     0.453121     0.246330    Uiso  6.860000 C
   CD         1.0    -0.260674     0.437537     0.246382    Uiso 13.020000 C
   OE1        1.0    -0.270876     0.414368     0.244537    Uiso 15.350000 O
   OE2        1.0    -0.272921     0.448521     0.248218    Uiso  7.590000 O
   H          0.1700 -0.189639     0.475803     0.264694    Uiso 10.650000 H
   D          0.8300 -0.189639     0.475803     0.264694    Uiso 10.650000 D
   DA         1.0    -0.234608     0.433181     0.271712    Uiso  9.660000 D
   DB2        1.0    -0.201045     0.447169     0.246351    Uiso 13.030000 D
   DB3        1.0    -0.230919     0.419324     0.247383    Uiso 13.030000 D
   DG2        1.0    -0.226635     0.469062     0.253265    Uiso  4.840000 D
   DG3        1.0    -0.226238     0.459580     0.235694    Uiso  4.840000 D
   N          1.0    -0.188333     0.420920     0.267728    Uiso 10.050000 N
   CA         1.0    -0.180969     0.402445     0.271295    Uiso  7.530000 C
   C          1.0    -0.186629     0.394540     0.286520    Uiso 11.080000 C
   O          1.0    -0.198943     0.372122     0.289773    Uiso 15.060000 O
   CB         1.0    -0.153084     0.413110     0.268198    Uiso 10.580000 C
   CG         1.0    -0.142556     0.395629     0.270815    Uiso  9.270000 C
   CD1        1.0    -0.155833     0.372328     0.261753    Uiso 11.300000 C
   CD2        1.0    -0.114338     0.409561     0.268187    Uiso 18.490000 C
   H          0.2800 -0.174675     0.436561     0.262879    Uiso  8.930000 H
   D          0.7200 -0.174675     0.436561     0.262879    Uiso  8.930000 D
   DA         1.0    -0.191593     0.385847     0.264840    Uiso  5.910000 D
   DB2        1.0    -0.149839     0.418592     0.257259    Uiso  9.560000 D
   DB3        1.0    -0.142467     0.429595     0.274726    Uiso  9.560000 D
   DG         1.0    -0.145813     0.389602     0.281671    Uiso  7.990000 D
   DD11       1.0    -0.148065     0.360124     0.263776    Uiso 10.430000 D
   DD12       1.0    -0.175828     0.362320     0.264173    Uiso 10.430000 D
   DD13       1.0    -0.153149     0.377792     0.250793    Uiso 10.430000 D
   DD21       1.0    -0.106979     0.396962     0.270075    Uiso 19.059999 D
   DD22       1.0    -0.110635     0.416057     0.257415    Uiso 19.059999 D
   DD23       1.0    -0.105197     0.425633     0.275195    Uiso 19.059999 D
   N          1.0    -0.177696     0.412828     0.296051    Uiso 12.770000 N
   CA         1.0    -0.182681     0.406857     0.310848    Uiso 13.420000 C
   C          1.0    -0.210799     0.391630     0.313664    Uiso 16.020000 C
   O          1.0    -0.219431     0.373943     0.322027    Uiso 19.139999 O
   CB         1.0    -0.170702     0.430947     0.319535    Uiso 16.020000 C
   CG         1.0    -0.142462     0.446418     0.317595    Uiso 20.780001 C
   OD1        1.0    -0.129666     0.461702     0.326907    Uiso 21.520000 O
   OD2        1.0    -0.133057     0.443245     0.306802    Uiso 21.709999 O
   H          0.0400 -0.167214     0.431548     0.293871    Uiso 11.690000 H
   D          0.9600 -0.167214     0.431548     0.293871    Uiso 11.690000 D
   DA         1.0    -0.174293     0.395667     0.314029    Uiso 12.470000 D
   DB2        1.0    -0.178849     0.442456     0.316532    Uiso 15.580000 D
   DB3        1.0    -0.174309     0.426009     0.330536    Uiso 15.580000 D
   N          1.0    -0.225390     0.398220     0.306687    Uiso 13.640000 N
   CA         1.0    -0.252523     0.385058     0.308700    Uiso 13.920000 C
   C          1.0    -0.265391     0.358997     0.302151    Uiso 15.850000 C
   O          1.0    -0.285171     0.342136     0.307198    Uiso 13.670000 O
   CB         1.0    -0.263083     0.400849     0.302662    Uiso 12.590000 C
   CG         1.0    -0.291526     0.387800     0.302026    Uiso  9.730000 C
   CD         1.0    -0.300583     0.406369     0.298804    Uiso  7.660000 C
   CE         1.0    -0.291614     0.419493     0.284684    Uiso 10.100000 C
   NZ         1.0    -0.305833     0.403477     0.272744    Uiso 12.320000 N
   H          0.0100 -0.219005     0.412584     0.299680    Uiso 12.870000 H
   D          0.9900 -0.219005     0.412584     0.299680    Uiso 12.870000 D
   DA         1.0    -0.256684     0.382655     0.319827    Uiso 13.210000 D
   DB2        1.0    -0.256546     0.417597     0.309076    Uiso 11.620000 D
   DB3        1.0    -0.255876     0.406125     0.292088    Uiso 11.620000 D
   DG2        1.0    -0.298362     0.373511     0.293903    Uiso  8.190000 D
   DG3        1.0    -0.299150     0.379219     0.312131    Uiso  8.190000 D
   DD2        1.0    -0.321053     0.396192     0.298700    Uiso  5.700000 D
   DD3        1.0    -0.293537     0.420883     0.306823    Uiso  5.700000 D
   DE2        1.0    -0.294062     0.435866     0.284476    Uiso  8.630000 D
   DE3        1.0    -0.271919     0.425258     0.283120    Uiso  8.630000 D
   HZ1A       0.0000 -0.300373     0.414105     0.263641    Uiso 11.290000 H
   DZ1B       1.0    -0.300373     0.414105     0.263641    Uiso 11.290000 D
   HZ2A       0.3500 -0.302195     0.388738     0.271816    Uiso 11.290000 H
   DZ2B       0.6500 -0.302195     0.388738     0.271816    Uiso 11.290000 D
   HZ3A       0.3000 -0.324948     0.396305     0.274361    Uiso 11.290000 H
   DZ3B       0.7000 -0.324948     0.396305     0.274361    Uiso 11.290000 D
   N          1.0    -0.254728     0.355186     0.291014    Uiso 12.130000 N
   CA         1.0    -0.266338     0.330664     0.284299    Uiso 10.220000 C
   C          1.0    -0.259161     0.312921     0.291233    Uiso  9.340000 C
   O          1.0    -0.271924     0.290127     0.289002    Uiso 11.750000 O
   CB         1.0    -0.259207     0.333333     0.268855    Uiso 13.830000 C
   H          0.0000 -0.238356     0.368385     0.286530    Uiso 11.010000 H
   D          1.0    -0.238356     0.368385     0.286530    Uiso 11.010000 D
   DA         1.0    -0.286625     0.322252     0.285060    Uiso  8.720000 D
   DB1        1.0    -0.268057     0.314836     0.264006    Uiso 13.050000 D
   DB2        1.0    -0.265603     0.344915     0.263672    Uiso 13.050000 D
   DB3        1.0    -0.238883     0.342193     0.267864    Uiso 13.050000 D
   N          1.0    -0.239125     0.322816     0.299523    Uiso 10.150000 N
   CA         1.0    -0.231241     0.307363     0.306927    Uiso 13.770000 C
   C          1.0    -0.236570     0.306105     0.322548    Uiso  8.830000 C
   O          1.0    -0.240406     0.287310     0.329202    Uiso  9.760000 O
   CB         1.0    -0.203145     0.317052     0.304237    Uiso 12.500000 C
   CG1        1.0    -0.198662     0.315775     0.288626    Uiso 12.310000 C
   CG2        1.0    -0.194332     0.301768     0.312517    Uiso 15.140000 C
   CD1        1.0    -0.208449     0.289338     0.283151    Uiso 13.340000 C
   H          0.2300 -0.227874     0.341611     0.301265    Uiso  9.190000 H
   D          0.7700 -0.227874     0.341611     0.301265    Uiso  9.190000 D
   DA         1.0    -0.241667     0.288268     0.302923    Uiso 13.530000 D
   DB         1.0    -0.192485     0.336616     0.307532    Uiso 12.010000 D
   DG12       1.0    -0.208364     0.323623     0.282818    Uiso 11.790000 D
   DG13       1.0    -0.178590     0.326684     0.286509    Uiso 11.790000 D
   DG21       1.0    -0.174458     0.308865     0.310494    Uiso 15.180000 D
   DG22       1.0    -0.197121     0.303345     0.323612    Uiso 15.180000 D
   DG23       1.0    -0.205095     0.282128     0.309378    Uiso 15.180000 D
   DD11       1.0    -0.204539     0.290070     0.272025    Uiso 13.020000 D
   DD12       1.0    -0.199203     0.280645     0.288626    Uiso 13.020000 D
   DD13       1.0    -0.228645     0.278279     0.284872    Uiso 13.020000 D
   N          1.0    -0.237102     0.325332     0.328524    Uiso 13.150000 N
   CA         1.0    -0.244442     0.324637     0.342925    Uiso 17.549999 C
   C          1.0    -0.223212     0.336560     0.353321    Uiso 12.580000 C
   O          1.0    -0.227704     0.330796     0.365773    Uiso 18.209999 O
   H          0.2700 -0.232472     0.341780     0.323591    Uiso 12.550000 H
   D          0.7300 -0.232472     0.341780     0.323591    Uiso 12.550000 D
   DA2        1.0    -0.255053     0.334438     0.343717    Uiso 17.830000 D
   DA3        1.0    -0.256609     0.305148     0.346043    Uiso 17.830000 D
   N          1.0    -0.200424     0.352932     0.348723    Uiso 13.110000 N
   CA         1.0    -0.178794     0.364292     0.357941    Uiso  9.710000 C
   C          1.0    -0.159255     0.389320     0.351705    Uiso 14.360000 C
   O          1.0    -0.163792     0.397807     0.341131    Uiso 23.230000 O
   CB         1.0    -0.168355     0.346567     0.359985    Uiso 19.639999 C
   CG         1.0    -0.158367     0.342380     0.346627    Uiso 22.110001 C
   CD         1.0    -0.143966     0.329331     0.349119    Uiso 26.940001 C
   NE         1.0    -0.129353     0.331434     0.336731    Uiso 21.170000 N
   CZ         1.0    -0.109145     0.328956     0.336731    Uiso 24.200001 C
   NH1        1.0    -0.101105     0.324224     0.348535    Uiso 46.520000 N
   NH2        1.0    -0.097048     0.331265     0.324926    Uiso 19.190001 N
   H          0.2400 -0.196335     0.358640     0.338608    Uiso 12.420000 H
   D          0.7600 -0.196335     0.358640     0.338608    Uiso 12.420000 D
   DA         1.0    -0.184444     0.367690     0.368077    Uiso  8.340000 D
   DB2        1.0    -0.153081     0.354416     0.367545    Uiso 20.250000 D
   DB3        1.0    -0.183361     0.328392     0.363531    Uiso 20.250000 D
   DG2        1.0    -0.173959     0.331002     0.339661    Uiso 23.219999 D
   DG3        1.0    -0.145627     0.360349     0.341757    Uiso 23.219999 D
   DD2        1.0    -0.131229     0.338381     0.357858    Uiso 29.020000 D
   DD3        1.0    -0.156787     0.309541     0.351330    Uiso 29.020000 D
   HE         0.6300 -0.132372     0.339282     0.328117    Uiso 22.090000 H
   DE         0.3700 -0.132372     0.339282     0.328117    Uiso 22.090000 D
   HH11       0.6500 -0.110541     0.322328     0.357607    Uiso 52.509998 H
   DH11       0.3500 -0.110541     0.322328     0.357607    Uiso 52.509998 D
   HH12       1.0    -0.085664     0.322196     0.348525    Uiso 52.509998 H
   DH12       0.0000 -0.085664     0.322196     0.348525    Uiso 52.509998 D
   HH21       0.2000 -0.103273     0.334945     0.315864    Uiso 19.719999 H
   DH21       0.8000 -0.103273     0.334945     0.315864    Uiso 19.719999 D
   HH22       0.4700 -0.081503     0.329444     0.324895    Uiso 19.719999 H
   DH22       0.5300 -0.081503     0.329444     0.324895    Uiso 19.719999 D
   N          1.0    -0.137260     0.401018     0.358254    Uiso 16.500000 N
   CA         1.0    -0.115922     0.424150     0.352998    Uiso 16.290001 C
   C          1.0    -0.099195     0.417278     0.344510    Uiso 18.129999 C
   O          1.0    -0.087514     0.408284     0.350297    Uiso 16.430000 O
   CB         1.0    -0.101651     0.441668     0.365116    Uiso 22.389999 C
   CG         1.0    -0.090037     0.469156     0.361351    Uiso 21.750000 C
   OD1        1.0    -0.078303     0.477436     0.350402    Uiso 24.940001 O
   ND2        1.0    -0.093443     0.483482     0.370444    Uiso 31.760000 N
   H          0.2500 -0.133710     0.394916     0.367399    Uiso 16.540001 H
   D          0.7500 -0.133710     0.394916     0.367399    Uiso 16.540001 D
   DA         1.0    -0.122682     0.433557     0.346084    Uiso 16.280001 D
   DB2        1.0    -0.114783     0.437875     0.373656    Uiso 23.600000 D
   DB3        1.0    -0.086632     0.438307     0.368494    Uiso 23.600000 D
   HD21       0.4500 -0.086209     0.502145     0.368473    Uiso 34.849998 H
   DD21       0.5500 -0.086209     0.502145     0.368473    Uiso 34.849998 D
   HD22       0.7300 -0.103305     0.475821     0.379391    Uiso 34.849998 H
   DD22       0.2700 -0.103305     0.475821     0.379391    Uiso 34.849998 D
   N          1.0    -0.098061     0.421465     0.330797    Uiso 21.059999 N
   CA         1.0    -0.085737     0.412715     0.321120    Uiso 23.940001 C
   C          1.0    -0.059507     0.433144     0.316865    Uiso 19.480000 C
   O          1.0    -0.041924     0.428863     0.317084    Uiso 21.639999 O
   CB         1.0    -0.101690     0.402013     0.307939    Uiso 20.950001 C
   OG1        1.0    -0.106240     0.420620     0.301849    Uiso 19.660000 O
   CG2        1.0    -0.126314     0.379106     0.311401    Uiso 20.840000 C
   H          0.0000 -0.105594     0.430984     0.325990    Uiso 21.040001 H
   D          1.0    -0.105594     0.430984     0.325990    Uiso 21.040001 D
   DA         1.0    -0.084056     0.397638     0.326021    Uiso 24.500000 D
   DB         1.0    -0.091684     0.396756     0.300514    Uiso 20.910000 D
   HG1A       0.3100 -0.119422     0.421540     0.307115    Uiso 19.360001 H
   DG1B       0.6900 -0.119422     0.421540     0.307115    Uiso 19.360001 D
   DG21       1.0    -0.137408     0.371746     0.301922    Uiso 20.780001 D
   DG22       1.0    -0.122903     0.364855     0.315958    Uiso 20.780001 D
   DG23       1.0    -0.136525     0.384082     0.318836    Uiso 20.780001 D
   N          1.0    -0.056804     0.455036     0.312715    Uiso 25.559999 N
   CA         1.0    -0.033441     0.475746     0.307178    Uiso 27.690001 C
   C          1.0    -0.028047     0.470958     0.292307    Uiso 28.350000 C
   O          1.0    -0.006441     0.482431     0.287646    Uiso 24.879999 O
   CB         1.0    -0.011146     0.481248     0.316604    Uiso 25.090000 C
   CG         1.0     0.012931     0.504492     0.312173    Uiso 38.290001 C
   OD1        1.0     0.012648     0.522949     0.307428    Uiso 38.730000 O
   ND2        1.0     0.033923     0.503516     0.313539    Uiso 37.680000 N
   H          0.5100 -0.071025     0.459017     0.313132    Uiso 27.360001 H
   D          0.4900 -0.071025     0.459017     0.313132    Uiso 27.360001 D
   DA         1.0    -0.035153     0.492551     0.306979    Uiso 29.910000 D
   DB2        1.0    -0.015723     0.484158     0.327158    Uiso 26.799999 D
   DB3        1.0    -0.007645     0.465551     0.316323    Uiso 26.799999 D
   HD21       0.2500  0.048420     0.513129     0.306740    Uiso 41.900002 H
   DD21       0.7500  0.048420     0.513129     0.306740    Uiso 41.900002 D
   HD22       0.3300  0.035446     0.493001     0.321297    Uiso 41.900002 H
   DD22       0.6700  0.035446     0.493001     0.321297    Uiso 41.900002 D
   N          1.0    -0.047150     0.454116     0.284674    Uiso 23.180000 N
   CA         1.0    -0.044631     0.451319     0.269866    Uiso 26.240000 C
   C          1.0    -0.041317     0.429426     0.265799    Uiso 16.840000 C
   O          1.0    -0.039821     0.425427     0.253296    Uiso 17.230000 O
   H          0.0000 -0.064541     0.441968     0.288574    Uiso 24.730000 H
   D          1.0    -0.064541     0.441968     0.288574    Uiso 24.730000 D
   DA2        1.0    -0.061265     0.449009     0.264496    Uiso 28.400000 D
   DA3        1.0    -0.028462     0.468405     0.265924    Uiso 28.400000 D
   N          1.0    -0.040108     0.415194     0.275852    Uiso 17.590000 N
   CA         1.0    -0.037083     0.393601     0.272974    Uiso 18.430000 C
   C          1.0    -0.057318     0.370920     0.280784    Uiso 13.710000 C
   O          1.0    -0.064309     0.373361     0.292474    Uiso 12.310000 O
   CB         1.0    -0.010643     0.398840     0.277103    Uiso 21.290001 C
   CG1        1.0    -0.004285     0.408922     0.291880    Uiso 30.760000 C
   CG2        1.0    -0.009034     0.375295     0.275643    Uiso 17.010000 C
   H          0.0000 -0.041102     0.418310     0.286207    Uiso 18.580000 H
   D          1.0    -0.041102     0.418310     0.286207    Uiso 18.580000 D
   DA         1.0    -0.039569     0.389508     0.261868    Uiso 19.590000 D
   DB         1.0     0.003182     0.413091     0.270158    Uiso 23.020000 D
   DG11       1.0     0.012007     0.407815     0.295394    Uiso 34.380001 D
   DG12       1.0     0.000062     0.428412     0.291880    Uiso 34.380001 D
   DG13       1.0    -0.020298     0.397676     0.298658    Uiso 34.380001 D
   DG21       1.0     0.010559     0.380496     0.274204    Uiso 17.879999 D
   DG22       1.0    -0.016584     0.364161     0.285091    Uiso 17.879999 D
   DG23       1.0    -0.020056     0.364893     0.266602    Uiso 17.879999 D
   N          1.0    -0.066937     0.348821     0.274256    Uiso  9.400000 N
   CA         1.0    -0.086237     0.325407     0.280471    Uiso 10.340000 C
   C          1.0    -0.079599     0.304960     0.277802    Uiso 13.880000 C
   O          1.0    -0.061747     0.308696     0.270335    Uiso 12.450000 O
   CB         1.0    -0.112797     0.317296     0.274830    Uiso  5.170000 C
   CG1        1.0    -0.114150     0.314686     0.258875    Uiso  8.750000 C
   CG2        1.0    -0.121052     0.335809     0.279387    Uiso  3.540000 C
   CD1        1.0    -0.141024     0.303214     0.253140    Uiso 10.340000 C
   H          0.1900 -0.061619     0.346643     0.264538    Uiso  8.320000 H
   D          0.8100 -0.061619     0.346643     0.264538    Uiso  8.320000 D
   DA         1.0    -0.086406     0.327867     0.291713    Uiso  9.460000 D
   DB         1.0    -0.125785     0.299027     0.279283    Uiso  3.250000 D
   DG12       1.0    -0.103033     0.333333     0.254162    Uiso  7.550000 D
   DG13       1.0    -0.106884     0.302519     0.255695    Uiso  7.550000 D
   DG21       1.0    -0.141134     0.327547     0.277541    Uiso  1.300000 D
   DG22       1.0    -0.117057     0.339733     0.290451    Uiso  1.300000 D
   DG23       1.0    -0.110770     0.353120     0.273412    Uiso  1.300000 D
   DD11       1.0    -0.140783     0.300998     0.241877    Uiso  9.460000 D
   DD12       1.0    -0.152721     0.284926     0.257937    Uiso  9.460000 D
   DD13       1.0    -0.148499     0.315549     0.255559    Uiso  9.460000 D
   N          1.0    -0.094208     0.283123     0.284163    Uiso 18.889999 N
   CA         1.0    -0.090284     0.261737     0.282870    Uiso 15.090000 C
   C          1.0    -0.105764     0.244858     0.270753    Uiso 11.700000 C
   O          1.0    -0.121800     0.247843     0.264757    Uiso  8.400000 O
   CB         1.0    -0.097218     0.246698     0.296468    Uiso 15.310000 C
   OG1        1.0    -0.123685     0.235357     0.298825    Uiso 15.680000 O
   CG2        1.0    -0.083333     0.263671     0.308825    Uiso 17.559999 C
   H          0.0000 -0.109074     0.279669     0.290368    Uiso 18.900000 H
   D          1.0    -0.109074     0.279669     0.290368    Uiso 18.900000 D
   DA         1.0    -0.070514     0.268497     0.280774    Uiso 14.340000 D
   DB         1.0    -0.092269     0.231977     0.295738    Uiso 14.600000 D
   HG1A       0.4400 -0.128120     0.225706     0.307522    Uiso 15.040000 H
   DG1B       0.5600 -0.128120     0.225706     0.307522    Uiso 15.040000 D
   DG21       1.0    -0.088263     0.252575     0.318367    Uiso 17.299999 D
   DG22       1.0    -0.062897     0.272121     0.307136    Uiso 17.299999 D
   DG23       1.0    -0.087856     0.278429     0.309785    Uiso 17.299999 D
   N          1.0    -0.100676     0.226870     0.267103    Uiso 11.610000 N
   CA         1.0    -0.115035     0.209146     0.256028    Uiso 15.260000 C
   C          1.0    -0.142455     0.192548     0.260189    Uiso 16.629999 C
   O          1.0    -0.159428     0.187610     0.251690    Uiso 12.850000 O
   CB         1.0    -0.103301     0.193036     0.252337    Uiso 22.889999 C
   CG         1.0    -0.120362     0.170167     0.243515    Uiso 27.410000 C
   CD         1.0    -0.106569     0.157850     0.237112    Uiso 34.740002 C
   CE         1.0    -0.124650     0.134924     0.228550    Uiso 53.830002 C
   NZ         1.0    -0.113387     0.119922     0.223347    Uiso 45.700001 N
   H          0.3800 -0.087050     0.224204     0.271420    Uiso 10.010000 H
   D          0.6200 -0.087050     0.224204     0.271420    Uiso 10.010000 D
   DA         1.0    -0.114416     0.219585     0.246706    Uiso 14.390000 D
   DB2        1.0    -0.086142     0.204396     0.246393    Uiso 23.549999 D
   DB3        1.0    -0.098980     0.186427     0.261930    Uiso 23.549999 D
   DG2        1.0    -0.135327     0.156235     0.250063    Uiso 28.969999 D
   DG3        1.0    -0.128256     0.175875     0.235047    Uiso 28.969999 D
   DD2        1.0    -0.091943     0.171200     0.230156    Uiso 37.770000 D
   DD3        1.0    -0.098388     0.151935     0.245329    Uiso 37.770000 D
   DE2        1.0    -0.140734     0.122626     0.235058    Uiso 60.669998 D
   DE3        1.0    -0.130761     0.141271     0.219499    Uiso 60.669998 D
   HZ1A       0.1800 -0.123895     0.108694     0.215036    Uiso 50.919998 H
   DZ1B       0.8200 -0.123895     0.108694     0.215036    Uiso 50.919998 D
   HZ2A       1.0    -0.095084     0.131845     0.220020    Uiso 50.919998 H
   DZ2B       0.0000 -0.095084     0.131845     0.220020    Uiso 50.919998 D
   HZ3A       0.0800 -0.113153     0.108488     0.231272    Uiso 50.919998 H
   DZ3B       0.9200 -0.113153     0.108488     0.231272    Uiso 50.919998 D
   N          1.0    -0.147151     0.183742     0.273224    Uiso 12.350000 N
   CA         1.0    -0.172851     0.167951     0.278167    Uiso 11.180000 C
   C          1.0    -0.187927     0.181376     0.276874    Uiso 12.290000 C
   O          1.0    -0.209456     0.170449     0.272056    Uiso  9.130000 O
   CB         1.0    -0.172519     0.160291     0.293277    Uiso 11.880000 C
   CG         1.0    -0.157460     0.147091     0.295165    Uiso 22.400000 C
   OD1        1.0    -0.168838     0.123621     0.295217    Uiso 21.030001 O
   OD2        1.0    -0.134173     0.160234     0.296510    Uiso 23.000000 O
   H          0.5300 -0.133691     0.187215     0.280503    Uiso 11.420000 H
   D          0.4700 -0.133691     0.187215     0.280503    Uiso 11.420000 D
   DA         1.0    -0.182123     0.150903     0.271889    Uiso 10.020000 D
   DB2        1.0    -0.163823     0.177227     0.299649    Uiso 10.850000 D
   DB3        1.0    -0.191730     0.147786     0.296760    Uiso 10.850000 D
   N          1.0    -0.177067     0.205015     0.281452    Uiso 16.780001 N
   CA         1.0    -0.189506     0.219811     0.279971    Uiso 10.420000 C
   C          1.0    -0.194122     0.223003     0.264683    Uiso 13.560000 C
   O          1.0    -0.214927     0.219116     0.260752    Uiso 12.770000 O
   CB         1.0    -0.173763     0.245346     0.286999    Uiso 12.460000 C
   CG         1.0    -0.174796     0.244126     0.302881    Uiso 12.280000 C
   CD         1.0    -0.155683     0.268628     0.309712    Uiso 13.000000 C
   OE1        1.0    -0.139232     0.285433     0.302256    Uiso 15.730000 O
   OE2        1.0    -0.157120     0.271088     0.322569    Uiso 16.110001 O
   H          0.0000 -0.160012     0.214215     0.286269    Uiso 16.290001 H
   D          1.0    -0.160012     0.214215     0.286269    Uiso 16.290001 D
   DA         1.0    -0.207639     0.210179     0.285185    Uiso  8.660000 D
   DB2        1.0    -0.154254     0.252950     0.283850    Uiso 11.110000 D
   DB3        1.0    -0.180502     0.257851     0.283631    Uiso 11.110000 D
   DG2        1.0    -0.193403     0.239920     0.306291    Uiso 10.900000 D
   DG3        1.0    -0.171193     0.229349     0.306385    Uiso 10.900000 D
   N          1.0    -0.174908     0.230081     0.255851    Uiso 12.110000 N
   CA         1.0    -0.177899     0.233367     0.241033    Uiso 13.890000 C
   C          1.0    -0.200387     0.210179     0.234922    Uiso 12.150000 C
   O          1.0    -0.213643     0.212188     0.225912    Uiso 13.150000 O
   CB         1.0    -0.154053     0.239206     0.233055    Uiso 14.460000 C
   H          0.0000 -0.157419     0.233611     0.258573    Uiso 11.160000 H
   D          1.0    -0.157419     0.233611     0.258573    Uiso 11.160000 D
   DA         1.0    -0.180948     0.249251     0.239781    Uiso 13.300000 D
   DB1        1.0    -0.156558     0.241610     0.222023    Uiso 13.980000 D
   DB2        1.0    -0.138257     0.256424     0.237122    Uiso 13.980000 D
   DB3        1.0    -0.150332     0.223754     0.234338    Uiso 13.980000 D
   N          1.0    -0.205073     0.187929     0.239792    Uiso 16.230000 N
   CA         1.0    -0.225551     0.164534     0.234296    Uiso 14.930000 C
   C          1.0    -0.250831     0.158657     0.240188    Uiso  8.940000 C
   O          1.0    -0.270222     0.144688     0.233671    Uiso  8.060000 O
   CB         1.0    -0.220728     0.142960     0.237435    Uiso 12.470000 C
   CG         1.0    -0.199907     0.143693     0.228655    Uiso 13.140000 C
   CD         1.0    -0.191874     0.125386     0.233618    Uiso 14.530000 C
   OE1        1.0    -0.197837     0.116580     0.245642    Uiso  9.390000 O
   OE2        1.0    -0.179563     0.119828     0.225453    Uiso 10.540000 O
   H          0.2700 -0.195255     0.185582     0.247644    Uiso 16.309999 H
   D          0.7300 -0.195255     0.185582     0.247644    Uiso 16.309999 D
   DA         1.0    -0.226261     0.166074     0.222992    Uiso 14.750000 D
   DB2        1.0    -0.215296     0.144200     0.248353    Uiso 11.800000 D
   DB3        1.0    -0.237879     0.125180     0.235527    Uiso 11.800000 D
   DG2        1.0    -0.206435     0.138961     0.217935    Uiso 12.600000 D
   DG3        1.0    -0.183643     0.162563     0.229093    Uiso 12.600000 D
   N          1.0    -0.250870     0.169115     0.252337    Uiso  9.680000 N
   CA         1.0    -0.274059     0.165924     0.258291    Uiso  9.900000 C
   C          1.0    -0.284139     0.179649     0.249605    Uiso  8.480000 C
   O          1.0    -0.306435     0.169040     0.246017    Uiso 13.970000 O
   CB         1.0    -0.269384     0.175274     0.273318    Uiso  8.760000 C
   CG         1.0    -0.292708     0.168496     0.281681    Uiso  7.670000 C
   CD         1.0    -0.287026     0.169453     0.297229    Uiso  3.100000 C
   CE         1.0    -0.306628     0.170411     0.306145    Uiso 10.380000 C
   NZ         1.0    -0.331169     0.146922     0.304748    Uiso 23.209999 N
   H          0.0000 -0.235277     0.179912     0.258197    Uiso  8.110000 H
   D          1.0    -0.235277     0.179912     0.258197    Uiso  8.110000 D
   DA         1.0    -0.288075     0.146021     0.258406    Uiso  8.360000 D
   DB2        1.0    -0.259129     0.167426     0.278584    Uiso  7.000000 D
   DB3        1.0    -0.258057     0.195683     0.273109    Uiso  7.000000 D
   DG2        1.0    -0.298859     0.181883     0.279397    Uiso  5.680000 D
   DG3        1.0    -0.307367     0.149551     0.278959    Uiso  5.680000 D
   DD2        1.0    -0.286709     0.152461     0.300107    Uiso  0.210000 D
   DD3        1.0    -0.268973     0.186014     0.299471    Uiso  0.210000 D
   DE2        1.0    -0.300841     0.172326     0.317022    Uiso  8.940000 D
   DE3        1.0    -0.308660     0.186314     0.302965    Uiso  8.940000 D
   HZ1A       0.7700 -0.343136     0.145721     0.312736    Uiso 24.340000 H
   DZ1B       0.2300 -0.343136     0.145721     0.312736    Uiso 24.340000 D
   HZ2A       0.2300 -0.339424     0.146641     0.295217    Uiso 24.340000 H
   DZ2B       0.7700 -0.339424     0.146641     0.295217    Uiso 24.340000 D
   HZ3A       0.0000 -0.328409     0.131563     0.305332    Uiso 24.340000 H
   DZ3B       1.0    -0.328409     0.131563     0.305332    Uiso 24.340000 D
   N          1.0    -0.267899     0.203382     0.246080    Uiso  8.510000 N
   CA         1.0    -0.275336     0.216994     0.236549    Uiso  8.310000 C
   C          1.0    -0.283812     0.203457     0.222565    Uiso  9.910000 C
   O          1.0    -0.301509     0.202893     0.216131    Uiso  8.660000 O
   CB         1.0    -0.253640     0.243900     0.234442    Uiso  7.260000 C
   CG         1.0    -0.243047     0.261118     0.247154    Uiso  9.350000 C
   CD1        1.0    -0.221742     0.286916     0.242753    Uiso 10.940000 C
   CD2        1.0    -0.263516     0.263465     0.254725    Uiso 12.970000 C
   H          0.0000 -0.249910     0.213408     0.249646    Uiso  8.040000 H
   D          1.0    -0.249910     0.213408     0.249646    Uiso  8.040000 D
   DA         1.0    -0.291034     0.217989     0.241116    Uiso  7.800000 D
   DB2        1.0    -0.237976     0.243130     0.229614    Uiso  6.540000 D
   DB3        1.0    -0.260228     0.253194     0.227362    Uiso  6.540000 D
   DG         1.0    -0.235328     0.253044     0.254370    Uiso  9.050000 D
   DD11       1.0    -0.215589     0.299515     0.251701    Uiso 10.950000 D
   DD12       1.0    -0.206184     0.284926     0.238843    Uiso 10.950000 D
   DD13       1.0    -0.228525     0.294389     0.234588    Uiso 10.950000 D
   DD21       1.0    -0.254899     0.279950     0.261461    Uiso 13.390000 D
   DD22       1.0    -0.275389     0.265474     0.246987    Uiso 13.390000 D
   DD23       1.0    -0.274626     0.246642     0.260961    Uiso 13.390000 D
   N          1.0    -0.271527     0.192191     0.217757    Uiso 10.120000 N
   CA         1.0    -0.278534     0.178729     0.204493    Uiso  9.000000 C
   C          1.0    -0.305176     0.156404     0.205108    Uiso  9.410000 C
   O          1.0    -0.319546     0.151241     0.195066    Uiso 10.830000 O
   CB         1.0    -0.259698     0.170223     0.200843    Uiso  5.930000 C
   CG         1.0    -0.261111     0.161511     0.185942    Uiso 11.530000 C
   CD1        1.0    -0.255672     0.142698     0.182907    Uiso  7.780000 C
   CD2        1.0    -0.267144     0.172307     0.175013    Uiso  7.610000 C
   CE1        1.0    -0.256545     0.134643     0.169403    Uiso  9.100000 C
   CE2        1.0    -0.268068     0.164215     0.161436    Uiso  9.470000 C
   CZ         1.0    -0.262762     0.145364     0.158662    Uiso 11.490000 C
   H          0.0000 -0.256922     0.192003     0.222700    Uiso  9.400000 H
   D          1.0    -0.256922     0.192003     0.222700    Uiso  9.400000 D
   DA         1.0    -0.277904     0.191534     0.196464    Uiso  8.050000 D
   DB2        1.0    -0.240835     0.185901     0.202553    Uiso  4.370000 D
   DB3        1.0    -0.263037     0.154733     0.207674    Uiso  4.370000 D
   DD1        1.0    -0.250818     0.134098     0.191239    Uiso  6.590000 D
   DD2        1.0    -0.271367     0.187047     0.177047    Uiso  6.380000 D
   DE1        1.0    -0.252380     0.119885     0.167255    Uiso  8.170000 D
   DE2        1.0    -0.272886     0.172627     0.152989    Uiso  8.620000 D
   DZ         1.0    -0.263454     0.139036     0.148078    Uiso 11.040000 D
   N          1.0    -0.312171     0.143129     0.216882    Uiso  9.480000 N
   CA         1.0    -0.337468     0.121706     0.218498    Uiso  6.760000 C
   C          1.0    -0.356818     0.130193     0.219572    Uiso  9.570000 C
   O          1.0    -0.376671     0.119397     0.212908    Uiso  9.070000 O
   CB         1.0    -0.338471     0.106497     0.231314    Uiso 11.680000 C
   CG         1.0    -0.325641     0.091345     0.228926    Uiso  7.090000 C
   OD1        1.0    -0.326021     0.082389     0.217393    Uiso 10.390000 O
   ND2        1.0    -0.313985     0.088510     0.239823    Uiso  8.440000 N
   H          0.4500 -0.300917     0.146678     0.225380    Uiso  8.280000 H
   D          0.5500 -0.300917     0.146678     0.225380    Uiso  8.280000 D
   DA         1.0    -0.342104     0.109539     0.209426    Uiso  5.020000 D
   DB2        1.0    -0.328683     0.119472     0.239854    Uiso 10.920000 D
   DB3        1.0    -0.357972     0.093673     0.234171    Uiso 10.920000 D
   HD21       0.3500 -0.310455     0.073977     0.240094    Uiso  7.040000 H
   DD21       0.6500 -0.310455     0.073977     0.240094    Uiso  7.040000 D
   HD22       0.1800 -0.308707     0.100790     0.247957    Uiso  7.040000 H
   DD22       0.8200 -0.308707     0.100790     0.247957    Uiso  7.040000 D
   N          1.0    -0.351402     0.149513     0.228008    Uiso 10.680000 N
   CA         1.0    -0.367874     0.160178     0.228749    Uiso 14.400000 C
   C          1.0    -0.370431     0.169697     0.214504    Uiso 15.460000 C
   O          1.0    -0.390710     0.167350     0.210719    Uiso 16.570000 O
   CB         1.0    -0.357811     0.181508     0.239416    Uiso 14.500000 C
   CG         1.0    -0.355567     0.174223     0.254422    Uiso 14.100000 C
   CD         1.0    -0.342116     0.197092     0.263849    Uiso  7.010000 C
   OE1        1.0    -0.332385     0.218440     0.258969    Uiso  5.960000 O
   NE2        1.0    -0.341523     0.192717     0.277406    Uiso 17.510000 N
   H          0.3700 -0.336025     0.158056     0.234307    Uiso  8.990000 H
   D          0.6300 -0.336025     0.158056     0.234307    Uiso  8.990000 D
   DA         1.0    -0.386520     0.145683     0.232127    Uiso 13.450000 D
   DB2        1.0    -0.339099     0.195777     0.236048    Uiso 13.580000 D
   DB3        1.0    -0.370295     0.189318     0.239573    Uiso 13.580000 D
   DG2        1.0    -0.374278     0.162037     0.258677    Uiso 13.090000 D
   DG3        1.0    -0.344881     0.164440     0.254495    Uiso 13.090000 D
   HE21       0.4100 -0.349980     0.174729     0.281076    Uiso 17.180000 H
   DE21       0.5900 -0.349980     0.174729     0.281076    Uiso 17.180000 D
   HE22       0.1000 -0.332598     0.207381     0.284184    Uiso 17.180000 H
   DE22       0.9000 -0.332598     0.207381     0.284184    Uiso 17.180000 D
   N          1.0    -0.349964     0.180550     0.206485    Uiso 15.630000 N
   CA         1.0    -0.350297     0.191365     0.193001    Uiso 11.310000 C
   C          1.0    -0.365681     0.171068     0.182302    Uiso 10.500000 C
   O          1.0    -0.380331     0.173378     0.174440    Uiso  9.940000 O
   CB         1.0    -0.323479     0.208057     0.187767    Uiso  5.970000 C
   CG         1.0    -0.309125     0.231921     0.196224    Uiso  7.170000 C
   OD1        1.0    -0.320462     0.236465     0.205536    Uiso  7.300000 O
   OD2        1.0    -0.286440     0.246266     0.193492    Uiso  5.830000 O
   H          0.1500 -0.333333     0.182146     0.209008    Uiso 15.980000 H
   D          0.8500 -0.333333     0.182146     0.209008    Uiso 15.980000 D
   DA         1.0    -0.358819     0.203100     0.194284    Uiso 10.790000 D
   DB2        1.0    -0.313442     0.197693     0.188465    Uiso  4.380000 D
   DB3        1.0    -0.323980     0.213333     0.176994    Uiso  4.380000 D
   N          1.0    -0.362606     0.151072     0.181770    Uiso  9.260000 N
   CA         1.0    -0.376991     0.130887     0.171853    Uiso 10.710000 C
   C          1.0    -0.404646     0.116974     0.175795    Uiso 12.850000 C
   O          1.0    -0.421109     0.110065     0.166667    Uiso 13.790000 O
   CB         1.0    -0.366603     0.112769     0.171040    Uiso  7.650000 C
   CG1        1.0    -0.383662     0.090294     0.162103    Uiso  5.340000 C
   CG2        1.0    -0.340173     0.125987     0.165190    Uiso  8.020000 C
   H          0.8200 -0.350555     0.148443     0.187902    Uiso  8.160000 H
   D          0.1800 -0.350555     0.148443     0.187902    Uiso  8.160000 D
   DA         1.0    -0.375384     0.138980     0.161530    Uiso  9.900000 D
   DB         1.0    -0.366076     0.106084     0.181489    Uiso  6.230000 D
   DG11       1.0    -0.376199     0.077545     0.161571    Uiso  3.460000 D
   DG12       1.0    -0.402388     0.080549     0.166667    Uiso  3.460000 D
   DG13       1.0    -0.384686     0.096603     0.151623    Uiso  3.460000 D
   DG21       1.0    -0.333333     0.112863     0.164700    Uiso  6.670000 D
   DG22       1.0    -0.340312     0.132897     0.154741    Uiso  6.670000 D
   DG23       1.0    -0.327997     0.141721     0.171916    Uiso  6.670000 D
   N          1.0    -0.410276     0.112187     0.189289    Uiso 14.810000 N
   CA         1.0    -0.436215     0.101447     0.193940    Uiso 12.210000 C
   C          1.0    -0.447013     0.117932     0.189571    Uiso 11.350000 C
   O          1.0    -0.468318     0.108525     0.184534    Uiso 13.270000 O
   CB         1.0    -0.437803     0.097879     0.209738    Uiso 19.040001 C
   CG         1.0    -0.464669     0.083333     0.214911    Uiso 14.280000 C
   OD1        1.0    -0.480945     0.067368     0.207058    Uiso 17.940001 O
   OD2        1.0    -0.469511     0.088285     0.226778    Uiso 12.840000 O
   H          0.0000 -0.397680     0.115266     0.197037    Uiso 14.200000 H
   D          1.0    -0.397680     0.115266     0.197037    Uiso 14.200000 D
   DA         1.0    -0.447692     0.083333     0.189185    Uiso 11.070000 D
   DB2        1.0    -0.428487     0.087440     0.212700    Uiso 19.270000 D
   DB3        1.0    -0.428541     0.116242     0.214744    Uiso 19.270000 D
   N          1.0    -0.432412     0.142679     0.191250    Uiso 12.960000 N
   CA         1.0    -0.441704     0.159671     0.187756    Uiso 12.770000 C
   C          1.0    -0.446409     0.159821     0.172166    Uiso 16.350000 C
   O          1.0    -0.463216     0.163670     0.167995    Uiso 10.680000 O
   CB         1.0    -0.423145     0.186220     0.192647    Uiso  7.010000 C
   H          0.0000 -0.414484     0.151316     0.194962    Uiso 11.640000 H
   D          1.0    -0.414484     0.151316     0.194962    Uiso 11.640000 D
   DA         1.0    -0.459418     0.153381     0.193189    Uiso 11.410000 D
   DB1        1.0    -0.433141     0.196472     0.194263    Uiso  4.500000 D
   DB2        1.0    -0.414484     0.185169     0.202334    Uiso  4.500000 D
   DB3        1.0    -0.408784     0.195364     0.184659    Uiso  4.500000 D
   N          1.0    -0.431793     0.155916     0.163428    Uiso 18.280001 N
   CA         1.0    -0.435057     0.156348     0.148380    Uiso 11.540000 C
   C          1.0    -0.459360     0.133497     0.143635    Uiso 11.430000 C
   O          1.0    -0.472115     0.135337     0.134250    Uiso 11.140000 O
   CB         1.0    -0.412616     0.157587     0.140757    Uiso  8.350000 C
   H          0.3600 -0.417862     0.152461     0.166667    Uiso 18.250000 H
   D          0.6400 -0.417862     0.152461     0.166667    Uiso 18.250000 D
   DA         1.0    -0.436144     0.173002     0.145690    Uiso 10.170000 D
   DB1        1.0    -0.409418     0.167820     0.131007    Uiso  6.340000 D
   DB2        1.0    -0.396052     0.167106     0.147348    Uiso  6.340000 D
   DB3        1.0    -0.416667     0.138473     0.138661    Uiso  6.340000 D
   N          1.0    -0.466020     0.111755     0.149965    Uiso 12.230000 N
   CA         1.0    -0.489652     0.089205     0.146545    Uiso  8.010000 C
   C          1.0    -0.511730     0.092171     0.151102    Uiso 13.080000 C
   O          1.0    -0.529428     0.087083     0.143103    Uiso 10.580000 O
   CB         1.0    -0.490720     0.065998     0.153281    Uiso 14.910000 C
   CG1        1.0    -0.516826     0.043053     0.151644    Uiso 12.790000 C
   CG2        1.0    -0.470869     0.061341     0.146889    Uiso 16.260000 C
   H          0.3600 -0.455583     0.109182     0.157359    Uiso 10.790000 H
   D          0.6400 -0.455583     0.109182     0.157359    Uiso 10.790000 D
   DA         1.0    -0.490686     0.086520     0.135293    Uiso  5.730000 D
   DB         1.0    -0.486699     0.069452     0.164387    Uiso 14.000000 D
   DG11       1.0    -0.516376     0.026587     0.155471    Uiso 11.470000 D
   DG12       1.0    -0.530219     0.045795     0.157734    Uiso 11.470000 D
   DG13       1.0    -0.522134     0.040631     0.140663    Uiso 11.470000 D
   DG21       1.0    -0.471953     0.044800     0.151738    Uiso 15.630000 D
   DG22       1.0    -0.474357     0.058299     0.135720    Uiso 15.630000 D
   DG23       1.0    -0.452439     0.077714     0.148745    Uiso 15.630000 D
   N          1.0    -0.511053     0.100452     0.164053    Uiso 19.790001 N
   CA         1.0    -0.531773     0.103174     0.169392    Uiso 12.200000 C
   C          1.0    -0.534430     0.123095     0.161436    Uiso 15.770000 C
   O          1.0    -0.555351     0.120993     0.159893    Uiso 21.719999 O
   CB         1.0    -0.528036     0.109445     0.184930    Uiso 18.459999 C
   CG         1.0    -0.527316     0.088998     0.193429    Uiso 18.930000 C
   CD         1.0    -0.525007     0.093974     0.209050    Uiso 28.090000 C
   NE         1.0    -0.544465     0.071968     0.216402    Uiso 32.849998 N
   CZ         1.0    -0.558932     0.072400     0.226590    Uiso 24.639999 C
   NH1        1.0    -0.556648     0.093749     0.231324    Uiso 27.639999 N
   NH2        1.0    -0.575916     0.050921     0.232232    Uiso 30.240000 N
   H          0.3300 -0.496734     0.105221     0.170936    Uiso 20.500000 H
   D          0.6700 -0.496734     0.105221     0.170936    Uiso 20.500000 D
   DA         1.0    -0.549170     0.085356     0.168120    Uiso 11.380000 D
   DB2        1.0    -0.510383     0.126963     0.186432    Uiso 18.900000 D
   DB3        1.0    -0.543663     0.111492     0.188684    Uiso 18.900000 D
   DG2        1.0    -0.544691     0.071386     0.191573    Uiso 19.469999 D
   DG3        1.0    -0.511309     0.087290     0.190113    Uiso 19.469999 D
   DD2        1.0    -0.506759     0.097203     0.212575    Uiso 30.459999 D
   DD3        1.0    -0.526902     0.110347     0.211188    Uiso 30.459999 D
   HE         0.5400 -0.544552     0.055502     0.214932    Uiso 36.169998 H
   DE         0.4600 -0.544552     0.055502     0.214932    Uiso 36.169998 D
   HH11       1.0    -0.543670     0.110534     0.227174    Uiso 29.920000 H
   DH11       0.0000 -0.543670     0.110534     0.227174    Uiso 29.920000 D
   HH12       0.2500 -0.568051     0.093317     0.239177    Uiso 29.920000 H
   DH12       0.7500 -0.568051     0.093317     0.239177    Uiso 29.920000 D
   HH21       0.9300 -0.577901     0.034398     0.228696    Uiso 33.040001 H
   DH21       0.0700 -0.577901     0.034398     0.228696    Uiso 33.040001 D
   HH22       0.4300 -0.587054     0.050921     0.240073    Uiso 33.040001 H
   DH22       0.5700 -0.587054     0.050921     0.240073    Uiso 33.040001 D
   N          1.0    -0.513596     0.142585     0.156368    Uiso 20.490000 N
   CA         1.0    -0.515127     0.161117     0.147702    Uiso 25.670000 C
   C          1.0    -0.528252     0.150508     0.133927    Uiso 16.719999 C
   O          1.0    -0.538766     0.160309     0.127733    Uiso 16.340000 O
   H          0.1300 -0.495827     0.145927     0.158120    Uiso 20.980000 H
   D          0.8700 -0.495827     0.145927     0.158120    Uiso 20.980000 D
   DA2        1.0    -0.525668     0.168327     0.153198    Uiso 27.190001 D
   DA3        1.0    -0.496211     0.176607     0.145669    Uiso 27.190001 D
   N          1.0    -0.527930     0.130437     0.128994    Uiso 12.680000 N
   CA         1.0    -0.540181     0.118683     0.115866    Uiso 16.840000 C
   C          1.0    -0.568253     0.101466     0.118014    Uiso 15.700000 C
   O          1.0    -0.583686     0.101916     0.109932    Uiso 13.530000 O
   CB         1.0    -0.527960     0.104263     0.109661    Uiso  8.520000 C
   CG1        1.0    -0.501877     0.122739     0.103978    Uiso 11.560000 C
   CG2        1.0    -0.544711     0.085656     0.098534    Uiso 11.210000 C
   CD1        1.0    -0.486013     0.110760     0.101537    Uiso 10.480000 C
   H          0.1800 -0.519326     0.121988     0.133843    Uiso 11.660000 H
   D          0.8200 -0.519326     0.121988     0.133843    Uiso 11.660000 D
   DA         1.0    -0.537574     0.133197     0.108409    Uiso 16.639999 D
   DB         1.0    -0.525667     0.093598     0.118024    Uiso  6.650000 D
   DG12       1.0    -0.503714     0.130512     0.094123    Uiso 10.310000 D
   DG13       1.0    -0.492203     0.137891     0.111486    Uiso 10.310000 D
   DG21       1.0    -0.534377     0.077902     0.093289    Uiso  9.890000 D
   DG22       1.0    -0.561316     0.070429     0.103519    Uiso  9.890000 D
   DG23       1.0    -0.550152     0.095326     0.091016    Uiso  9.890000 D
   DD11       1.0    -0.474211     0.119340     0.092444    Uiso  9.010000 D
   DD12       1.0    -0.474512     0.113632     0.110756    Uiso  9.010000 D
   DD13       1.0    -0.498232     0.090744     0.099765    Uiso  9.010000 D
   N          1.0    -0.575238     0.086032     0.128953    Uiso 14.020000 N
   CA         1.0    -0.601514     0.068082     0.131883    Uiso 13.430000 C
   C          1.0    -0.615954     0.080436     0.137493    Uiso 20.250000 C
   O          1.0    -0.638262     0.066974     0.140715    Uiso 15.470000 O
   CB         1.0    -0.603274     0.048367     0.142269    Uiso  9.280000 C
   CG         1.0    -0.590616     0.033196     0.138265    Uiso 10.690000 C
   CD1        1.0    -0.589876     0.018513     0.150872    Uiso 13.030000 C
   CD2        1.0    -0.604012     0.015378     0.126221    Uiso 10.450000 C
   H          0.0000 -0.562964     0.085637     0.135960    Uiso 13.350000 H
   D          1.0    -0.562964     0.085637     0.135960    Uiso 13.350000 D
   DA         1.0    -0.610667     0.058393     0.122268    Uiso 12.630000 D
   DB2        1.0    -0.594716     0.057905     0.152019    Uiso  7.660000 D
   DB3        1.0    -0.623064     0.034998     0.144011    Uiso  7.660000 D
   DG         1.0    -0.571330     0.046076     0.135032    Uiso  9.350000 D
   DD11       1.0    -0.584042     0.005239     0.147546    Uiso 12.160000 D
   DD12       1.0    -0.576614     0.031638     0.158464    Uiso 12.160000 D
   DD13       1.0    -0.608622     0.008337     0.155398    Uiso 12.160000 D
   DD21       1.0    -0.591924     0.008562     0.122206    Uiso  9.060000 D
   DD22       1.0    -0.621538    -0.000357     0.130016    Uiso  9.060000 D
   DD23       1.0    -0.607936     0.025254     0.118045    Uiso  9.060000 D
   N          1.0    -0.603940     0.105408     0.138786    Uiso 14.830000 N
   CA         1.0    -0.616610     0.119059     0.142864    Uiso 22.990000 C
   C          1.0    -0.619075     0.133967     0.130934    Uiso 17.680000 C
   O          1.0    -0.632529     0.143449     0.132467    Uiso 32.049999 O
   CB         1.0    -0.602540     0.137215     0.154908    Uiso 27.790001 C
   CG         1.0    -0.603691     0.125255     0.168965    Uiso 42.759998 C
   CD         1.0    -0.589081     0.145890     0.179643    Uiso 49.049999 C
   NE         1.0    -0.563268     0.162525     0.174940    Uiso 49.730000 N
   CZ         1.0    -0.550181     0.187234     0.177120    Uiso 54.639999 C
   NH1        1.0    -0.560035     0.199007     0.183971    Uiso 49.730000 N
   NH2        1.0    -0.526873     0.200453     0.172333    Uiso 46.930000 N
   H          0.1900 -0.585270     0.116862     0.136920    Uiso 14.170000 H
   D          0.8100 -0.585270     0.116862     0.136920    Uiso 14.170000 D
   DA         1.0    -0.635484     0.105765     0.146503    Uiso 23.959999 D
   DB2        1.0    -0.582824     0.148518     0.151999    Uiso 29.719999 D
   DB3        1.0    -0.610445     0.149438     0.156368    Uiso 29.719999 D
   DG2        1.0    -0.623189     0.114421     0.172364    Uiso 47.680000 D
   DG3        1.0    -0.595279     0.113332     0.168224    Uiso 47.680000 D
   DD2        1.0    -0.598533     0.156742     0.180832    Uiso 55.230000 D
   DD3        1.0    -0.588513     0.137497     0.189581    Uiso 55.230000 D
   HE         1.0    -0.553761     0.154189     0.171103    Uiso 56.060001 H
   DE         0.0000 -0.553761     0.154189     0.171103    Uiso 56.060001 D
   HH11       1.0    -0.577906     0.189281     0.187746    Uiso 56.049999 H
   DH11       0.0000 -0.577906     0.189281     0.187746    Uiso 56.049999 D
   HH12       0.5800 -0.549622     0.217914     0.185483    Uiso 56.049999 H
   DH12       0.4200 -0.549622     0.217914     0.185483    Uiso 56.049999 D
   HH21       1.0    -0.519002     0.191741     0.167057    Uiso 52.689999 H
   DH21       0.0000 -0.519002     0.191741     0.167057    Uiso 52.689999 D
   HH22       0.8500 -0.516795     0.219341     0.173960    Uiso 52.689999 H
   DH22       0.1500 -0.516795     0.219341     0.173960    Uiso 52.689999 D
   N          1.0    -0.606536     0.136314     0.119202    Uiso 13.670000 N
   CA         1.0    -0.604360     0.153250     0.107972    Uiso 17.010000 C
   C          1.0    -0.621648     0.138154     0.096000    Uiso 14.520000 C
   O          1.0    -0.619496     0.121255     0.090348    Uiso 14.930000 O
   CB         1.0    -0.577086     0.168515     0.103133    Uiso 10.460000 C
   CG         1.0    -0.573222     0.187722     0.092194    Uiso 12.410000 C
   OD1        1.0    -0.576837     0.182052     0.079764    Uiso 11.230000 O
   ND2        1.0    -0.565693     0.210779     0.096772    Uiso 12.650000 N
   H          0.0000 -0.597489     0.126569     0.117179    Uiso 12.310000 H
   D          1.0    -0.597489     0.126569     0.117179    Uiso 12.310000 D
   DA         1.0    -0.610212     0.166261     0.111726    Uiso 16.320000 D
   DB2        1.0    -0.565468     0.178710     0.112049    Uiso  8.460000 D
   DB3        1.0    -0.571076     0.155916     0.098930    Uiso  8.460000 D
   HD21       0.7100 -0.562674     0.224655     0.089879    Uiso 11.090000 H
   DD21       0.2900 -0.562674     0.224655     0.089879    Uiso 11.090000 D
   HD22       0.3500 -0.562923     0.214628     0.107179    Uiso 11.090000 H
   DD22       0.6500 -0.562923     0.214628     0.107179    Uiso 11.090000 D
   N          1.0    -0.638570     0.144538     0.092090    Uiso 15.510000 N
   CA         1.0    -0.658491     0.129442     0.082173    Uiso 16.209999 C
   C          1.0    -0.648471     0.127921     0.067876    Uiso 17.200001 C
   O          1.0    -0.661886     0.110328     0.060013    Uiso 14.550000 O
   CB         1.0    -0.676158     0.140125     0.080692    Uiso 29.160000 C
   H          0.1500 -0.638941     0.159990     0.095625    Uiso 15.020000 H
   D          0.8500 -0.638941     0.159990     0.095625    Uiso 15.020000 D
   DA         1.0    -0.669444     0.110365     0.086208    Uiso 15.860000 D
   DB1        1.0    -0.695167     0.124936     0.078439    Uiso 31.410000 D
   DB2        1.0    -0.676004     0.149213     0.090515    Uiso 31.410000 D
   DB3        1.0    -0.669450     0.153963     0.072308    Uiso 31.410000 D
   N          1.0    -0.625420     0.145796     0.064257    Uiso 20.010000 N
   CA         1.0    -0.614444     0.145439     0.050857    Uiso 19.080000 C
   C          1.0    -0.597848     0.133591     0.051514    Uiso 20.879999 C
   O          1.0    -0.591125     0.128240     0.040513    Uiso 17.750000 O
   CB         1.0    -0.598893     0.172120     0.045059    Uiso 20.139999 C
   CG         1.0    -0.614019     0.183817     0.039971    Uiso 32.630001 C
   CD         1.0    -0.596637     0.209183     0.033297    Uiso 33.410000 C
   CE         1.0    -0.610751     0.221801     0.027718    Uiso 48.900002 C
   NZ         1.0    -0.629285     0.206912     0.016591    Uiso 66.809998 N
   H          0.0000 -0.613915     0.160741     0.070379    Uiso 19.440001 H
   D          1.0    -0.613915     0.160741     0.070379    Uiso 19.440001 D
   DA         1.0    -0.629527     0.134624     0.043453    Uiso 18.320000 D
   DB2        1.0    -0.586285     0.184230     0.053193    Uiso 19.600000 D
   DB3        1.0    -0.588036     0.171556     0.036216    Uiso 19.600000 D
   DG2        1.0    -0.627648     0.171519     0.032243    Uiso 34.580002 D
   DG3        1.0    -0.623519     0.186671     0.048772    Uiso 34.580002 D
   DD2        1.0    -0.583333     0.221425     0.041180    Uiso 35.520000 D
   DD3        1.0    -0.586510     0.206705     0.024683    Uiso 35.520000 D
   DE2        1.0    -0.620849     0.224467     0.036279    Uiso 54.110001 D
   DE3        1.0    -0.597187     0.239920     0.023244    Uiso 54.110001 D
   HZ1A       1.0    -0.641491     0.213784     0.015068    Uiso 75.589996 H
   DZ1B       0.0000 -0.641491     0.213784     0.015068    Uiso 75.589996 D
   HZ2A       0.0000 -0.620033     0.208245     0.007268    Uiso 75.589996 H
   DZ2B       1.0    -0.620033     0.208245     0.007268    Uiso 75.589996 D
   HZ3A       0.3900 -0.639655     0.188154     0.019511    Uiso 75.589996 H
   DZ3B       0.6100 -0.639655     0.188154     0.019511    Uiso 75.589996 D
   N          1.0    -0.590930     0.129573     0.063965    Uiso 17.920000 N
   CA         1.0    -0.574817     0.118646     0.065457    Uiso 18.860001 C
   C          1.0    -0.588801     0.091458     0.070212    Uiso 19.030001 C
   O          1.0    -0.581060     0.077282     0.066604    Uiso 15.360000 O
   CB         1.0    -0.553531     0.133967     0.075843    Uiso 14.130000 C
   CG         1.0    -0.535632     0.161699     0.072381    Uiso 10.300000 C
   CD1        1.0    -0.516273     0.174467     0.083956    Uiso 12.280000 C
   CD2        1.0    -0.522734     0.164797     0.058345    Uiso 17.280001 C
   H          0.1700 -0.596294     0.133610     0.073225    Uiso 17.139999 H
   D          0.8300 -0.596294     0.133610     0.073225    Uiso 17.139999 D
   DA         1.0    -0.566264     0.119265     0.055404    Uiso 18.270000 D
   DB2        1.0    -0.562089     0.133272     0.085906    Uiso 12.600000 D
   DB3        1.0    -0.542085     0.125086     0.076771    Uiso 12.600000 D
   DG         1.0    -0.546508     0.171200     0.071630    Uiso  8.000000 D
   DD11       1.0    -0.503803     0.194106     0.081265    Uiso 10.380000 D
   DD12       1.0    -0.525870     0.173321     0.093716    Uiso 10.380000 D
   DD13       1.0    -0.505325     0.165079     0.085155    Uiso 10.380000 D
   DD21       1.0    -0.509315     0.184643     0.056614    Uiso 16.379999 D
   DD22       1.0    -0.512972     0.154076     0.058355    Uiso 16.379999 D
   DD23       1.0    -0.536978     0.157869     0.050190    Uiso 16.379999 D
   N          1.0    -0.609315     0.083666     0.078116    Uiso 17.059999 N
   CA         1.0    -0.622669     0.057868     0.083333    Uiso 15.430000 C
   C          1.0    -0.634389     0.039110     0.071328    Uiso 19.980000 C
   O          1.0    -0.630843     0.020935     0.070848    Uiso 18.340000 O
   CB         1.0    -0.642465     0.054601     0.093956    Uiso 12.270000 C
   CG         1.0    -0.659302     0.027432     0.098378    Uiso 18.059999 C
   CD         1.0    -0.677482     0.024859     0.109776    Uiso 22.500000 C
   CE         1.0    -0.685816     0.001070     0.118327    Uiso 25.150000 C
   NZ         1.0    -0.692922    -0.021630     0.109650    Uiso 31.410000 N
   H          0.0700 -0.616902     0.094443     0.080994    Uiso 17.420000 H
   D          0.9300 -0.616902     0.094443     0.080994    Uiso 17.420000 D
   DA         1.0    -0.609291     0.053925     0.088471    Uiso 15.470000 D
   DB2        1.0    -0.632865     0.065378     0.103227    Uiso 11.680000 D
   DB3        1.0    -0.654396     0.061341     0.089681    Uiso 11.680000 D
   DG2        1.0    -0.670368     0.016617     0.089420    Uiso 18.620001 D
   DG3        1.0    -0.647733     0.019903     0.102247    Uiso 18.620001 D
   DD2        1.0    -0.668217     0.040950     0.116762    Uiso 23.950001 D
   DD3        1.0    -0.694081     0.023921     0.105073    Uiso 23.950001 D
   DE2        1.0    -0.670378     0.003849     0.125094    Uiso 27.129999 D
   DE3        1.0    -0.702125    -0.002572     0.124573    Uiso 27.129999 D
   HZ1A       0.0700 -0.702389    -0.037702     0.115740    Uiso 34.639999 H
   DZ1B       0.9300 -0.702389    -0.037702     0.115740    Uiso 34.639999 D
   HZ2A       0.2700 -0.704546    -0.022569     0.101517    Uiso 34.639999 H
   DZ2B       0.7300 -0.704546    -0.022569     0.101517    Uiso 34.639999 D
   HZ3A       0.1400 -0.676907    -0.020916     0.105542    Uiso 34.639999 H
   DZ3B       0.8600 -0.676907    -0.020916     0.105542    Uiso 34.639999 D
   N          1.0    -0.648349     0.042021     0.061619    Uiso 18.040001 N
   CA         1.0    -0.659088     0.023470     0.050253    Uiso 19.490000 C
   C          1.0    -0.639373     0.020785     0.042171    Uiso 14.400000 C
   O          1.0    -0.642885    -0.000319     0.039220    Uiso 19.600000 O
   CB         1.0    -0.672395     0.033797     0.041118    Uiso 22.629999 C
   CG         1.0    -0.676758     0.050470     0.050440    Uiso 22.549999 C
   CD         1.0    -0.654811     0.061942     0.060097    Uiso 19.830000 C
   DA         1.0    -0.672902     0.005239     0.054413    Uiso 19.840000 D
   DB2        1.0    -0.660262     0.044405     0.032442    Uiso 23.600000 D
   DB3        1.0    -0.690145     0.018363     0.037332    Uiso 23.600000 D
   DG2        1.0    -0.677620     0.064909     0.044267    Uiso 23.510000 D
   DG3        1.0    -0.694156     0.039317     0.056238    Uiso 23.510000 D
   DD2        1.0    -0.639276     0.078540     0.055321    Uiso 20.240000 D
   DD3        1.0    -0.660324     0.066298     0.070014    Uiso 20.240000 D
   N          1.0    -0.618457     0.041739     0.038552    Uiso 15.030000 N
   CA         1.0    -0.599301     0.040444     0.030210    Uiso 13.530000 C
   C          1.0    -0.588708     0.026474     0.038229    Uiso 17.049999 C
   O          1.0    -0.587596     0.008731     0.032911    Uiso 13.060000 O
   CB         1.0    -0.578428     0.066936     0.026060    Uiso 11.890000 C
   CG1        1.0    -0.559245     0.065303     0.016820    Uiso 12.420000 C
   CG2        1.0    -0.589327     0.081300     0.018687    Uiso 12.420000 C
   H          0.0000 -0.614239     0.059445     0.041295    Uiso 14.610000 H
   D          1.0    -0.614239     0.059445     0.041295    Uiso 14.610000 D
   DA         1.0    -0.607967     0.030004     0.020689    Uiso 12.800000 D
   DB         1.0    -0.568910     0.077226     0.035486    Uiso 10.840000 D
   DG11       1.0    -0.548487     0.083333     0.011262    Uiso 11.470000 D
   DG12       1.0    -0.546841     0.061754     0.023327    Uiso 11.470000 D
   DG13       1.0    -0.569049     0.050019     0.009385    Uiso 11.470000 D
   DG21       1.0    -0.574191     0.099963     0.015861    Uiso 11.470000 D
   DG22       1.0    -0.599165     0.071217     0.009291    Uiso 11.470000 D
   DG23       1.0    -0.602415     0.083027     0.025622    Uiso 11.470000 D
   N          1.0    -0.580912     0.034229     0.051233    Uiso 14.580000 N
   CA         1.0    -0.571694     0.021348     0.060128    Uiso 13.140000 C
   C          1.0    -0.590180    -0.006778     0.060597    Uiso 14.390000 C
   O          1.0    -0.582674    -0.022043     0.060326    Uiso 14.400000 O
   CB         1.0    -0.566844     0.032576     0.074790    Uiso 14.490000 C
   CG         1.0    -0.556428     0.021442     0.084957    Uiso 14.450000 C
   CD1        1.0    -0.572254     0.001465     0.093487    Uiso 27.940001 C
   CD2        1.0    -0.530748     0.031112     0.086198    Uiso  9.430000 C
   CE1        1.0    -0.562724    -0.008712     0.102862    Uiso 17.850000 C
   CE2        1.0    -0.521066     0.021142     0.095510    Uiso 11.210000 C
   CZ         1.0    -0.537070     0.001296     0.103832    Uiso 15.980000 C
   OH         1.0    -0.527083    -0.008355     0.113092    Uiso 13.100000 O
   H          0.2500 -0.580810     0.049231     0.055852    Uiso 14.250000 H
   D          0.7500 -0.580810     0.049231     0.055852    Uiso 14.250000 D
   DA         1.0    -0.553930     0.024259     0.055978    Uiso 12.520000 D
   DB2        1.0    -0.553396     0.052610     0.074112    Uiso 14.140000 D
   DB3        1.0    -0.584517     0.029685     0.079044    Uiso 14.140000 D
   DD1        1.0    -0.592345    -0.006328     0.092736    Uiso 30.280001 D
   DD2        1.0    -0.518119     0.046677     0.079691    Uiso  8.070000 D
   DE1        1.0    -0.575304    -0.024277     0.109421    Uiso 18.170000 D
   DE2        1.0    -0.500996     0.028859     0.096323    Uiso 10.200000 D
   HH         0.2800 -0.510610     0.005145     0.116189    Uiso 12.470000 H
   DH         0.7200 -0.510610     0.005145     0.116189    Uiso 12.470000 D
   N          1.0    -0.614540    -0.013969     0.061285    Uiso 11.360000 N
   CA         1.0    -0.633645    -0.040537     0.061390    Uiso 14.930000 C
   C          1.0    -0.632395    -0.053681     0.048209    Uiso 16.040001 C
   O          1.0    -0.635058    -0.074973     0.048782    Uiso 13.490000 O
   CB         1.0    -0.659797    -0.043542     0.062933    Uiso 13.450000 C
   CG         1.0    -0.665609    -0.039523     0.077751    Uiso 16.500000 C
   OD1        1.0    -0.677728    -0.028446     0.079618    Uiso 22.280001 O
   OD2        1.0    -0.658355    -0.047616     0.087553    Uiso 25.360001 O
   H          0.2900 -0.621425    -0.001953     0.061755    Uiso 11.990000 H
   D          0.7100 -0.621425    -0.001953     0.061755    Uiso 11.990000 D
   DA         1.0    -0.630349    -0.049587     0.070274    Uiso 16.270000 D
   DB2        1.0    -0.660969    -0.029722     0.056395    Uiso 14.500000 D
   DB3        1.0    -0.673882    -0.062411     0.059732    Uiso 14.500000 D
   N          1.0    -0.628245    -0.041251     0.036227    Uiso 11.700000 N
   CA         1.0    -0.629215    -0.052817     0.022816    Uiso 11.780000 C
   C          1.0    -0.605963    -0.054863     0.019730    Uiso 12.300000 C
   O          1.0    -0.605256    -0.065190     0.008822    Uiso 12.880000 O
   CB         1.0    -0.632721    -0.037909     0.011127    Uiso 11.500000 C
   OG         1.0    -0.636174    -0.050019    -0.001950    Uiso 16.969999 O
   H          0.0000 -0.624105    -0.023019     0.035497    Uiso 10.700000 H
   D          1.0    -0.624105    -0.023019     0.035497    Uiso 10.700000 D
   DA         1.0    -0.645526    -0.071649     0.022670    Uiso 10.800000 D
   DB2        1.0    -0.649256    -0.036313     0.013348    Uiso 10.460000 D
   DB3        1.0    -0.616051    -0.019302     0.010689    Uiso 10.460000 D
   HG         0.8100 -0.625954    -0.058130    -0.002461    Uiso 17.030001 H
   DG         0.1900 -0.625954    -0.058130    -0.002461    Uiso 17.030001 D
   N          1.0    -0.587118    -0.045532     0.028813    Uiso 13.410000 N
   CA         1.0    -0.563012    -0.043335     0.025538    Uiso 10.240000 C
   C          1.0    -0.559406    -0.062693     0.033557    Uiso  9.750000 C
   O          1.0    -0.570224    -0.071386     0.044757    Uiso 12.680000 O
   CB         1.0    -0.541410    -0.016880     0.028823    Uiso  7.710000 C
   CG         1.0    -0.539991     0.005145     0.020616    Uiso  7.390000 C
   CD1        1.0    -0.519849     0.029722     0.026904    Uiso  8.500000 C
   CD2        1.0    -0.534836     0.003943     0.005078    Uiso  7.680000 C
   H          0.0000 -0.588037    -0.039467     0.038573    Uiso 13.080000 H
   D          1.0    -0.588037    -0.039467     0.038573    Uiso 13.080000 D
   DA         1.0    -0.562416    -0.046827     0.014443    Uiso  9.270000 D
   DB2        1.0    -0.542601    -0.013181     0.039814    Uiso  6.250000 D
   DB3        1.0    -0.523844    -0.016673     0.026936    Uiso  6.250000 D
   DG         1.0    -0.557864     0.004619     0.021607    Uiso  5.860000 D
   DD11       1.0    -0.508499     0.042471     0.018593    Uiso  7.190000 D
   DD12       1.0    -0.528879     0.038134     0.032827    Uiso  7.190000 D
   DD13       1.0    -0.508106     0.025761     0.033735    Uiso  7.190000 D
   DD21       1.0    -0.544539     0.011528    -0.000949    Uiso  6.210000 D
   DD22       1.0    -0.514700     0.015077     0.003191    Uiso  6.210000 D
   DD23       1.0    -0.541640    -0.015453     0.002044    Uiso  6.210000 D
   N          1.0    -0.543931    -0.069302     0.027676    Uiso  8.180000 N
   CA         1.0    -0.537539    -0.086632     0.034319    Uiso 12.830000 C
   C          1.0    -0.517179    -0.073001     0.045362    Uiso 11.660000 C
   O          1.0    -0.506738    -0.050038     0.046957    Uiso 11.610000 O
   CB         1.0    -0.528924    -0.098931     0.023432    Uiso 13.860000 C
   CG         1.0    -0.505930    -0.079967     0.015371    Uiso 13.310000 C
   OD1        1.0    -0.484798    -0.072044     0.020741    Uiso 10.930000 O
   OD2        1.0    -0.508966    -0.073095     0.003629    Uiso 15.480000 O
   H          0.1400 -0.535498    -0.062843     0.018239    Uiso  7.610000 H
   D          0.8600 -0.535498    -0.062843     0.018239    Uiso  7.610000 D
   DA         1.0    -0.554121    -0.101390     0.039543    Uiso 13.180000 D
   DB2        1.0    -0.524226    -0.111811     0.028635    Uiso 14.420000 D
   DB3        1.0    -0.544066    -0.109182     0.015965    Uiso 14.420000 D
   N          1.0    -0.511391    -0.087571     0.053026    Uiso  8.170000 N
   CA         1.0    -0.494802    -0.077320     0.065081    Uiso 11.200000 C
   C          1.0    -0.468701    -0.056272     0.061014    Uiso 13.120000 C
   O          1.0    -0.455865    -0.039674     0.069555    Uiso 11.250000 O
   CB         1.0    -0.492907    -0.098180     0.072704    Uiso 13.900000 C
   H          0.0000 -0.517730    -0.106103     0.051170    Uiso  6.990000 H
   D          1.0    -0.517730    -0.106103     0.051170    Uiso  6.990000 D
   DA         1.0    -0.502815    -0.069509     0.072266    Uiso 10.620000 D
   DB1        1.0    -0.480492    -0.090294     0.081672    Uiso 13.860000 D
   DB2        1.0    -0.511495    -0.112431     0.076239    Uiso 13.860000 D
   DB3        1.0    -0.485387    -0.106685     0.065644    Uiso 13.860000 D
   N          1.0    -0.460453    -0.056459     0.048177    Uiso 12.100000 N
   CA         1.0    -0.435860    -0.036444     0.043631    Uiso 10.560000 C
   C          1.0    -0.437008    -0.013049     0.039585    Uiso  8.510000 C
   O          1.0    -0.420647     0.007999     0.043516    Uiso  8.560000 O
   CB         1.0    -0.425962    -0.045363     0.031461    Uiso 12.910000 C
   CG1        1.0    -0.403018    -0.023019     0.025111    Uiso 11.820000 C
   CG2        1.0    -0.419609    -0.065209     0.036300    Uiso 10.310000 C
   H          0.0000 -0.470050    -0.069865     0.040826    Uiso 11.270000 H
   D          1.0    -0.470050    -0.069865     0.040826    Uiso 11.270000 D
   DA         1.0    -0.422666    -0.031487     0.052255    Uiso  9.430000 D
   DB         1.0    -0.440474    -0.053737     0.023484    Uiso 12.240000 D
   DG11       1.0    -0.396029    -0.029366     0.016497    Uiso 10.930000 D
   DG12       1.0    -0.408128    -0.009501     0.021263    Uiso 10.930000 D
   DG13       1.0    -0.388424    -0.014157     0.033015    Uiso 10.930000 D
   DG21       1.0    -0.409972    -0.068927     0.027895    Uiso  9.120000 D
   DG22       1.0    -0.407354    -0.058130     0.045393    Uiso  9.120000 D
   DG23       1.0    -0.436882    -0.082389     0.038938    Uiso  9.120000 D
   N          1.0    -0.456167    -0.016279     0.031576    Uiso  7.560000 N
   CA         1.0    -0.458806     0.005013     0.027228    Uiso  8.870000 C
   C          1.0    -0.466736     0.015884     0.039178    Uiso  5.110000 C
   O          1.0    -0.465003     0.036651     0.037708    Uiso  3.850000 O
   CB         1.0    -0.477605    -0.002798     0.015173    Uiso  5.700000 C
   CG         1.0    -0.467620    -0.007510     0.001543    Uiso 14.660000 C
   CD         1.0    -0.484672    -0.011923    -0.010939    Uiso  9.520000 C
   NE         1.0    -0.472836    -0.013162    -0.023932    Uiso  8.860000 N
   CZ         1.0    -0.471752    -0.033140    -0.028312    Uiso  8.840000 C
   NH1        1.0    -0.481717    -0.053850    -0.020773    Uiso 12.610000 N
   NH2        1.0    -0.460631    -0.032426    -0.040273    Uiso 10.790000 N
   H          0.4400 -0.470008    -0.033196     0.027999    Uiso  6.750000 H
   D          0.5600 -0.470008    -0.033196     0.027999    Uiso  6.750000 D
   DA         1.0    -0.440720     0.019884     0.023411    Uiso  8.330000 D
   DB2        1.0    -0.494536    -0.020203     0.017967    Uiso  4.520000 D
   DB3        1.0    -0.482052     0.012017     0.013264    Uiso  4.520000 D
   DG2        1.0    -0.449548     0.008862    -0.000886    Uiso 15.270000 D
   DG3        1.0    -0.465783    -0.024127     0.002722    Uiso 15.270000 D
   DD2        1.0    -0.502265    -0.029516    -0.009698    Uiso  9.100000 D
   DD3        1.0    -0.488463     0.003455    -0.011794    Uiso  9.100000 D
   HE         0.0000 -0.467488     0.001145    -0.030825    Uiso  8.320000 H
   DE         1.0    -0.467488     0.001145    -0.030825    Uiso  8.320000 D
   HH11       0.6500 -0.490119    -0.054882    -0.011513    Uiso 12.820000 H
   DH11       0.3500 -0.490119    -0.054882    -0.011513    Uiso 12.820000 D
   HH12       0.5200 -0.480909    -0.069208    -0.023838    Uiso 12.820000 H
   DH12       0.4800 -0.480909    -0.069208    -0.023838    Uiso 12.820000 D
   HH21       0.0000 -0.453079    -0.016542    -0.046050    Uiso 10.630000 H
   DH21       1.0    -0.453079    -0.016542    -0.046050    Uiso 10.630000 D
   HH22       0.7000 -0.459508    -0.047447    -0.043714    Uiso 10.630000 H
   DH22       0.3000 -0.459508    -0.047447    -0.043714    Uiso 10.630000 D
   N          1.0    -0.475309     0.002478     0.050868    Uiso  9.480000 N
   CA         1.0    -0.479779     0.013181     0.063371    Uiso  8.680000 C
   C          1.0    -0.455199     0.031056     0.070671    Uiso  5.930000 C
   O          1.0    -0.451839     0.051108     0.075561    Uiso  5.800000 O
   CB         1.0    -0.497457    -0.007867     0.073215    Uiso  9.240000 C
   CG         1.0    -0.524758    -0.020616     0.068648    Uiso  8.050000 C
   CD         1.0    -0.541155    -0.044499     0.076907    Uiso  8.700000 C
   NE         1.0    -0.568042    -0.054469     0.074602    Uiso 11.070000 N
   CZ         1.0    -0.585806    -0.077639     0.077949    Uiso 21.510000 C
   NH1        1.0    -0.579717    -0.093429     0.083685    Uiso 19.080000 N
   NH2        1.0    -0.609798    -0.085168     0.075540    Uiso 20.559999 N
   H          0.2900 -0.479337    -0.015659     0.052004    Uiso  8.200000 H
   D          0.7100 -0.479337    -0.015659     0.052004    Uiso  8.200000 D
   DA         1.0    -0.488946     0.023789     0.060545    Uiso  7.250000 D
   DB2        1.0    -0.491844    -0.022137     0.073653    Uiso  7.920000 D
   DB3        1.0    -0.496286    -0.000094     0.083333    Uiso  7.920000 D
   DG2        1.0    -0.531846    -0.007736     0.070347    Uiso  6.490000 D
   DG3        1.0    -0.525779    -0.025291     0.057604    Uiso  6.490000 D
   DD2        1.0    -0.536536    -0.058806     0.073935    Uiso  7.270000 D
   DD3        1.0    -0.537523    -0.040162     0.088002    Uiso  7.270000 D
   HE         0.2400 -0.573023    -0.045081     0.067761    Uiso 10.120000 H
   DE         0.7600 -0.573023    -0.045081     0.067761    Uiso 10.120000 D
   HH11       0.5100 -0.561507    -0.088228     0.085624    Uiso 19.730000 H
   DH11       0.4900 -0.561507    -0.088228     0.085624    Uiso 19.730000 D
   HH12       0.5000 -0.593478    -0.111098     0.086177    Uiso 19.730000 H
   DH12       0.5000 -0.593478    -0.111098     0.086177    Uiso 19.730000 D
   HH21       0.0900 -0.614619    -0.073151     0.071088    Uiso 21.500000 H
   DH21       0.9100 -0.614619    -0.073151     0.071088    Uiso 21.500000 D
   HH22       0.8100 -0.623355    -0.102949     0.078137    Uiso 21.500000 H
   DH22       0.1900 -0.623355    -0.102949     0.078137    Uiso 21.500000 D
   N          1.0    -0.437799     0.024165     0.071421    Uiso  3.410000 N
   CA         1.0    -0.412948     0.041119     0.077167    Uiso  5.510000 C
   C          1.0    -0.399709     0.065678     0.069033    Uiso  7.460000 C
   O          1.0    -0.386846     0.085844     0.075175    Uiso  8.170000 O
   CB         1.0    -0.397149     0.028295     0.077188    Uiso  7.250000 C
   H          0.0000 -0.440407     0.007210     0.068230    Uiso  1.760000 H
   D          1.0    -0.440407     0.007210     0.068230    Uiso  1.760000 D
   DA         1.0    -0.414694     0.045757     0.087918    Uiso  4.280000 D
   DB1        1.0    -0.378645     0.041044     0.081484    Uiso  6.370000 D
   DB2        1.0    -0.406349     0.011359     0.083333    Uiso  6.370000 D
   DB3        1.0    -0.395149     0.023320     0.066541    Uiso  6.370000 D
   N          1.0    -0.402501     0.064420     0.055206    Uiso  5.540000 N
   CA         1.0    -0.390848     0.087271     0.046790    Uiso  9.540000 C
   C          1.0    -0.401556     0.104132     0.050409    Uiso  6.750000 C
   O          1.0    -0.387587     0.126963     0.052109    Uiso  6.200000 O
   CB         1.0    -0.394410     0.080699     0.031253    Uiso 14.940000 C
   H          0.1300 -0.412454     0.048254     0.049648    Uiso  3.260000 H
   D          0.8700 -0.412454     0.048254     0.049648    Uiso  3.260000 D
   DA         1.0    -0.370815     0.097710     0.048991    Uiso  8.060000 D
   DB1        1.0    -0.389045     0.097804     0.025288    Uiso 14.550000 D
   DB2        1.0    -0.382487     0.073001     0.028312    Uiso 14.550000 D
   DB3        1.0    -0.414095     0.066955     0.029292    Uiso 14.550000 D
   N          1.0    -0.426448     0.093242     0.051608    Uiso  7.730000 N
   CA         1.0    -0.437951     0.108413     0.054820    Uiso  5.820000 C
   C          1.0    -0.429897     0.120392     0.069179    Uiso  7.730000 C
   O          1.0    -0.426887     0.141533     0.071369    Uiso  7.120000 O
   CB         1.0    -0.466598     0.092453     0.053986    Uiso  7.350000 C
   CG         1.0    -0.481105     0.106723     0.055237    Uiso  9.030000 C
   CD1        1.0    -0.475175     0.125217     0.043172    Uiso  6.430000 C
   CD2        1.0    -0.509364     0.088416     0.056144    Uiso 13.790000 C
   H          0.0000 -0.438649     0.074466     0.050534    Uiso  6.530000 H
   D          1.0    -0.438649     0.074466     0.050534    Uiso  6.530000 D
   DA         1.0    -0.431573     0.123283     0.047082    Uiso  4.240000 D
   DB2        1.0    -0.471673     0.082464     0.044037    Uiso  6.080000 D
   DB3        1.0    -0.472991     0.078822     0.062464    Uiso  6.080000 D
   DG         1.0    -0.475490     0.117594     0.064852    Uiso  8.090000 D
   DD11       1.0    -0.483283     0.137065     0.045435    Uiso  4.970000 D
   DD12       1.0    -0.454924     0.136971     0.042046    Uiso  4.970000 D
   DD13       1.0    -0.483203     0.114721     0.033589    Uiso  4.970000 D
   DD21       1.0    -0.518269     0.097954     0.061066    Uiso 13.800000 D
   DD22       1.0    -0.516951     0.082314     0.045675    Uiso 13.800000 D
   DD23       1.0    -0.512664     0.072288     0.062432    Uiso 13.800000 D
   N          1.0    -0.426360     0.107173     0.079044    Uiso  9.210000 N
   CA         1.0    -0.416217     0.118157     0.092663    Uiso  8.750000 C
   C          1.0    -0.389372     0.139881     0.091109    Uiso  7.970000 C
   O          1.0    -0.382734     0.160572     0.096469    Uiso  7.590000 O
   CB         1.0    -0.417657     0.097879     0.102643    Uiso  9.010000 C
   CG1        1.0    -0.445084     0.077789     0.104979    Uiso  6.650000 C
   CG2        1.0    -0.405871     0.109126     0.116637    Uiso  9.790000 C
   CD1        1.0    -0.448692     0.053436     0.110933    Uiso  5.740000 C
   H          0.1600 -0.430388     0.089036     0.077949    Uiso  8.090000 H
   D          0.8400 -0.430388     0.089036     0.077949    Uiso  8.090000 D
   DA         1.0    -0.427597     0.125480     0.097106    Uiso  7.540000 D
   DB         1.0    -0.407660     0.089224     0.097992    Uiso  7.840000 D
   DG12       1.0    -0.453143     0.085281     0.112351    Uiso  5.010000 D
   DG13       1.0    -0.455178     0.073602     0.095124    Uiso  5.010000 D
   DG21       1.0    -0.406649     0.094237     0.123186    Uiso  8.790000 D
   DG22       1.0    -0.386407     0.123828     0.115229    Uiso  8.790000 D
   DG23       1.0    -0.416667     0.116843     0.121434    Uiso  8.790000 D
   DD11       1.0    -0.468673     0.040237     0.112257    Uiso  3.920000 D
   DD12       1.0    -0.440689     0.045475     0.103832    Uiso  3.920000 D
   DD13       1.0    -0.439305     0.057023     0.121007    Uiso  3.920000 D
   N          1.0    -0.373569     0.135488     0.083674    Uiso  6.870000 N
   CA         1.0    -0.347498     0.155109     0.081526    Uiso  8.310000 C
   C          1.0    -0.345640     0.179574     0.076635    Uiso  8.480000 C
   O          1.0    -0.328915     0.199983     0.081151    Uiso  7.660000 O
   CB         1.0    -0.334859     0.146209     0.071015    Uiso  8.210000 C
   CG         1.0    -0.306857     0.164328     0.069680    Uiso  6.450000 C
   OD1        1.0    -0.298669     0.186915     0.067886    Uiso  5.760000 O
   ND2        1.0    -0.292006     0.154451     0.070556    Uiso  5.250000 N
   H          0.0000 -0.378199     0.118683     0.079190    Uiso  5.470000 H
   D          1.0    -0.378199     0.118683     0.079190    Uiso  5.470000 D
   DA         1.0    -0.337445     0.158826     0.091391    Uiso  7.200000 D
   DB2        1.0    -0.337512     0.128090     0.074352    Uiso  7.080000 D
   DB3        1.0    -0.343302     0.144444     0.060774    Uiso  7.080000 D
   HD21       0.0000 -0.273024     0.165717     0.069732    Uiso  3.520000 H
   DD21       1.0    -0.273024     0.165717     0.069732    Uiso  3.520000 D
   HD22       0.0000 -0.299595     0.135600     0.072047    Uiso  3.520000 H
   DD22       1.0    -0.299595     0.135600     0.072047    Uiso  3.520000 D
   N          1.0    -0.362421     0.177978     0.067281    Uiso  8.350000 N
   CA         1.0    -0.363489     0.200265     0.063089    Uiso 10.300000 C
   C          1.0    -0.369997     0.211606     0.075415    Uiso  6.600000 C
   O          1.0    -0.355778     0.233573     0.079013    Uiso  6.970000 O
   CB         1.0    -0.382573     0.193674     0.051368    Uiso  7.240000 C
   CG         1.0    -0.373301     0.190201     0.037437    Uiso 12.510000 C
   SD         1.0    -0.354763     0.219473     0.028448    Uiso 13.330000 S
   CE         1.0    -0.378689     0.223491     0.020376    Uiso 11.040000 C
   H          0.2700 -0.375099     0.161793     0.062412    Uiso  6.850000 H
   D          0.7300 -0.375099     0.161793     0.062412    Uiso  6.850000 D
   DA         1.0    -0.345271     0.214197     0.059022    Uiso  9.190000 D
   DB2        1.0    -0.399654     0.176325     0.053986    Uiso  5.520000 D
   DB3        1.0    -0.386545     0.209014     0.050284    Uiso  5.520000 D
   DG2        1.0    -0.361442     0.181921     0.039115    Uiso 11.840000 D
   DG3        1.0    -0.389366     0.178072     0.030909    Uiso 11.840000 D
   DE1        1.0    -0.371516     0.233348     0.010522    Uiso 10.080000 D
   DE2        1.0    -0.394951     0.205015     0.018499    Uiso 10.080000 D
   DE3        1.0    -0.383783     0.234343     0.027259    Uiso 10.080000 D
   N          1.0    -0.391708     0.196866     0.081943    Uiso 10.460000 N
   CA         1.0    -0.399866     0.206405     0.093591    Uiso  7.770000 C
   C          1.0    -0.379029     0.218778     0.104426    Uiso  4.880000 C
   O          1.0    -0.373966     0.239018     0.109849    Uiso  3.710000 O
   CB         1.0    -0.424154     0.185113     0.100057    Uiso 10.410000 C
   CG1        1.0    -0.430328     0.193806     0.113603    Uiso 12.250000 C
   CG2        1.0    -0.445738     0.176513     0.089952    Uiso  4.370000 C
   H          0.0000 -0.403893     0.178579     0.079430    Uiso  9.140000 H
   D          1.0    -0.403893     0.178579     0.079430    Uiso  9.140000 D
   DA         1.0    -0.404049     0.220543     0.089629    Uiso  5.910000 D
   DB         1.0    -0.421619     0.169078     0.102226    Uiso  9.090000 D
   DG11       1.0    -0.450369     0.182146     0.115688    Uiso 11.300000 D
   DG12       1.0    -0.419572     0.192097     0.122133    Uiso 11.300000 D
   DG13       1.0    -0.425465     0.213352     0.112414    Uiso 11.300000 D
   DG21       1.0    -0.463224     0.169022     0.095760    Uiso  1.830000 D
   DG22       1.0    -0.442986     0.192585     0.083831    Uiso  1.830000 D
   DG23       1.0    -0.446168     0.162093     0.083333    Uiso  1.830000 D
   N          1.0    -0.366491     0.206912     0.107648    Uiso  7.340000 N
   CA         1.0    -0.345995     0.217595     0.117763    Uiso  3.190000 C
   C          1.0    -0.325567     0.243881     0.113540    Uiso  2.400000 C
   O          1.0    -0.314755     0.260367     0.122477    Uiso  4.580000 O
   CB         1.0    -0.335004     0.200227     0.119432    Uiso  4.710000 C
   CG         1.0    -0.316624     0.207362     0.131195    Uiso  3.250000 C
   CD1        1.0    -0.292166     0.226814     0.129703    Uiso  5.050000 C
   CD2        1.0    -0.323694     0.194425     0.143719    Uiso 11.020000 C
   CE1        1.0    -0.275157     0.233386     0.140465    Uiso  7.170000 C
   CE2        1.0    -0.306648     0.200941     0.154512    Uiso 12.660000 C
   CZ         1.0    -0.282364     0.220468     0.152854    Uiso  6.280000 C
   H          0.5000 -0.370078     0.190145     0.103508    Uiso  7.250000 H
   D          0.5000 -0.370078     0.190145     0.103508    Uiso  7.250000 D
   DA         1.0    -0.353176     0.219135     0.127889    Uiso  2.270000 D
   DB2        1.0    -0.350196     0.181226     0.121444    Uiso  4.090000 D
   DB3        1.0    -0.325293     0.200528     0.109869    Uiso  4.090000 D
   DD1        1.0    -0.286392     0.237028     0.119995    Uiso  4.500000 D
   DD2        1.0    -0.342711     0.179123     0.145095    Uiso 11.670000 D
   DE1        1.0    -0.256126     0.248651     0.139172    Uiso  7.040000 D
   DE2        1.0    -0.312370     0.190764     0.164262    Uiso 13.630000 D
   DZ         1.0    -0.268960     0.225650     0.161248    Uiso  5.980000 D
   N          1.0    -0.319946     0.248294     0.099994    Uiso  6.540000 N
   CA         1.0    -0.298933     0.272271     0.095364    Uiso  2.330000 C
   C          1.0    -0.305787     0.292906     0.095030    Uiso  2.120000 C
   O          1.0    -0.292934     0.312789     0.101402    Uiso  8.400000 O
   CB         1.0    -0.290000     0.269454     0.080932    Uiso  4.910000 C
   CG         1.0    -0.267364     0.293394     0.075332    Uiso  7.470000 C
   CD         1.0    -0.260022     0.290127     0.060670    Uiso  7.360000 C
   OE1        1.0    -0.271638     0.269886     0.054549    Uiso  4.910000 O
   NE2        1.0    -0.240792     0.310180     0.054924    Uiso  4.430000 N
   H          0.5300 -0.329503     0.235977     0.092142    Uiso  5.970000 H
   D          0.4700 -0.329503     0.235977     0.092142    Uiso  5.970000 D
   DA         1.0    -0.283343     0.278054     0.102612    Uiso  0.920000 D
   DB2        1.0    -0.284795     0.254922     0.081391    Uiso  4.010000 D
   DB3        1.0    -0.305398     0.264122     0.073611    Uiso  4.010000 D
   DG2        1.0    -0.271886     0.308415     0.075029    Uiso  7.080000 D
   DG3        1.0    -0.251235     0.298726     0.082141    Uiso  7.080000 D
   HE21       0.4500 -0.239548     0.327303     0.055696    Uiso  3.430000 H
   DE21       0.5500 -0.239548     0.327303     0.055696    Uiso  3.430000 D
   HE22       0.6600 -0.227369     0.308377     0.049679    Uiso  3.430000 H
   DE22       0.3400 -0.227369     0.308377     0.049679    Uiso  3.430000 D
   N          1.0    -0.325871     0.288606     0.087626    Uiso  5.960000 N
   CA         1.0    -0.331395     0.308452     0.084237    Uiso  7.170000 C
   C          1.0    -0.355085     0.305072     0.091308    Uiso  7.460000 C
   O          1.0    -0.362922     0.319511     0.088409    Uiso 14.200000 O
   CB         1.0    -0.333762     0.309766     0.068439    Uiso  5.610000 C
   CG         1.0    -0.358913     0.289676     0.062881    Uiso 12.290000 C
   SD         1.0    -0.360151     0.288305     0.044131    Uiso  9.590000 S
   CE         1.0    -0.338640     0.277378     0.040648    Uiso 11.450000 C
   H          0.3400 -0.338721     0.271426     0.083789    Uiso  3.800000 H
   D          0.6600 -0.338721     0.271426     0.083789    Uiso  3.800000 D
   DA         1.0    -0.315637     0.326440     0.087564    Uiso  5.260000 D
   DB2        1.0    -0.331039     0.328092     0.065467    Uiso  3.380000 D
   DB3        1.0    -0.319244     0.307063     0.063632    Uiso  3.380000 D
   DG2        1.0    -0.362544     0.271520     0.066802    Uiso 11.400000 D
   DG3        1.0    -0.373469     0.293506     0.066489    Uiso 11.400000 D
   DE1        1.0    -0.335477     0.277979     0.029428    Uiso 10.390000 D
   DE2        1.0    -0.320992     0.289357     0.045998    Uiso 10.390000 D
   DE3        1.0    -0.346717     0.258264     0.044548    Uiso 10.390000 D
   N          1.0    -0.366790     0.286409     0.100349    Uiso  3.560000 N
   CA         1.0    -0.388100     0.283367     0.108336    Uiso 11.110000 C
   C          1.0    -0.412963     0.268178     0.100745    Uiso 15.920000 C
   O          1.0    -0.414263     0.265511     0.088002    Uiso 12.760000 O
   H          0.5300 -0.361909     0.273116     0.102351    Uiso  1.190000 H
   D          0.4700 -0.361909     0.273116     0.102351    Uiso  1.190000 D
   DA2        1.0    -0.389070     0.273979     0.118149    Uiso 10.250000 D
   DA3        1.0    -0.385552     0.301862     0.110652    Uiso 10.250000 D
   N          1.0    -0.433179     0.258151     0.108993    Uiso 11.200000 N
   CA         1.0    -0.458319     0.242473     0.103248    Uiso  9.270000 C
   C          1.0    -0.465247     0.257137     0.093132    Uiso 16.840000 C
   O          1.0    -0.476021     0.247524     0.082037    Uiso 13.780000 O
   CB         1.0    -0.477606     0.231508     0.115031    Uiso 13.760000 C
   CG         1.0    -0.477144     0.250904     0.125053    Uiso 16.820000 C
   CD         1.0    -0.496249     0.239131     0.136638    Uiso 31.459999 C
   OE1        1.0    -0.512343     0.216375     0.135752    Uiso 30.490000 O
   OE2        1.0    -0.495132     0.252650     0.146659    Uiso 37.669998 O
   H          0.2400 -0.432621     0.260536     0.119526    Uiso 10.500000 H
   D          0.7600 -0.432621     0.260536     0.119526    Uiso 10.500000 D
   DA         1.0    -0.458775     0.226927     0.097554    Uiso  8.180000 D
   DB2        1.0    -0.496284     0.221632     0.110422    Uiso 13.570000 D
   DB3        1.0    -0.474279     0.218421     0.121038    Uiso 13.570000 D
   DG2        1.0    -0.458712     0.261362     0.129870    Uiso 17.250000 D
   DG3        1.0    -0.481380     0.263634     0.119307    Uiso 17.250000 D
   N          1.0    -0.459522     0.280326     0.096834    Uiso 16.080000 N
   CA         1.0    -0.464724     0.295872     0.087460    Uiso 12.890000 C
   C          1.0    -0.451384     0.299496     0.073570    Uiso 12.240000 C
   O          1.0    -0.462813     0.295891     0.062422    Uiso  9.930000 O
   CB         1.0    -0.456677     0.321332     0.094186    Uiso 23.240000 C
   OG1        1.0    -0.467569     0.317727     0.107794    Uiso 23.000000 O
   CG2        1.0    -0.464988     0.336353     0.085280    Uiso 16.360001 C
   H          0.2100 -0.451491     0.288681     0.106074    Uiso 16.240000 H
   D          0.7900 -0.451491     0.288681     0.106074    Uiso 16.240000 D
   DA         1.0    -0.484858     0.286597     0.085478    Uiso 12.400000 D
   DB         1.0    -0.436254     0.331903     0.095020    Uiso 24.830000 D
   HG1A       0.6400 -0.485928     0.308358     0.107064    Uiso 24.540001 H
   DG1B       0.3600 -0.485928     0.308358     0.107064    Uiso 24.540001 D
   DG21       1.0    -0.472728     0.345197     0.091923    Uiso 16.570000 D
   DG22       1.0    -0.448983     0.350867     0.079555    Uiso 16.570000 D
   DG23       1.0    -0.479309     0.324036     0.077866    Uiso 16.570000 D
   N          1.0    -0.427041     0.306687     0.074081    Uiso 12.000000 N
   CA         1.0    -0.412506     0.311757     0.061337    Uiso 15.790000 C
   C          1.0    -0.422930     0.289413     0.051556    Uiso  9.680000 C
   O          1.0    -0.424058     0.292230     0.038896    Uiso 12.980000 O
   H          0.4200 -0.417109     0.309184     0.083028    Uiso 11.070000 H
   D          0.5800 -0.417109     0.309184     0.083028    Uiso 11.070000 D
   DA2        1.0    -0.412263     0.327397     0.055852    Uiso 15.610000 D
   DA3        1.0    -0.393255     0.316958     0.064007    Uiso 15.610000 D
   N          1.0    -0.430616     0.266920     0.057218    Uiso 15.320000 N
   CA         1.0    -0.440979     0.244633     0.048407    Uiso 13.230000 C
   C          1.0    -0.466660     0.238474     0.042911    Uiso 11.080000 C
   O          1.0    -0.472409     0.232503     0.030575    Uiso  9.840000 O
   CB         1.0    -0.442295     0.222327     0.056457    Uiso  7.910000 C
   CG1        1.0    -0.453781     0.198800     0.047406    Uiso 12.400000 C
   CG2        1.0    -0.416230     0.228635     0.061431    Uiso  9.530000 C
   H          0.0000 -0.429980     0.263671     0.067605    Uiso 15.620000 H
   D          1.0    -0.429980     0.263671     0.067605    Uiso 15.620000 D
   DA         1.0    -0.428618     0.248444     0.039470    Uiso 13.110000 D
   DB         1.0    -0.454229     0.218327     0.065571    Uiso  6.730000 D
   DG11       1.0    -0.454537     0.183273     0.053287    Uiso 12.100000 D
   DG12       1.0    -0.472725     0.194050     0.044340    Uiso 12.100000 D
   DG13       1.0    -0.442307     0.202236     0.038114    Uiso 12.100000 D
   DG21       1.0    -0.417489     0.212394     0.066781    Uiso  8.660000 D
   DG22       1.0    -0.403909     0.233311     0.052422    Uiso  8.660000 D
   DG23       1.0    -0.408930     0.244633     0.068502    Uiso  8.660000 D
   N          1.0    -0.482433     0.240032     0.051869    Uiso 11.260000 N
   CA         1.0    -0.507529     0.234099     0.047468    Uiso 11.980000 C
   C          1.0    -0.506999     0.251486     0.035997    Uiso 13.310000 C
   O          1.0    -0.526474     0.245609     0.029417    Uiso 13.260000 O
   CB         1.0    -0.522500     0.235151     0.059971    Uiso 14.390000 C
   H          0.1600 -0.478341     0.245290     0.062036    Uiso 10.030000 H
   D          0.8400 -0.478341     0.245290     0.062036    Uiso 10.030000 D
   DA         1.0    -0.517272     0.215004     0.043360    Uiso 10.890000 D
   DB1        1.0    -0.541189     0.230682     0.056551    Uiso 13.790000 D
   DB2        1.0    -0.524133     0.221576     0.067803    Uiso 13.790000 D
   DB3        1.0    -0.512842     0.253945     0.064466    Uiso 13.790000 D
   N          1.0    -0.485503     0.272721     0.033547    Uiso 14.510000 N
   CA         1.0    -0.483167     0.288418     0.021649    Uiso 15.060000 C
   C          1.0    -0.481094     0.277735     0.007769    Uiso 11.610000 C
   O          1.0    -0.487668     0.283611    -0.003087    Uiso 12.370000 O
   H          0.0800 -0.469851     0.279537     0.039668    Uiso 14.300000 H
   D          0.9200 -0.469851     0.279537     0.039668    Uiso 14.300000 D
   DA2        1.0    -0.499523     0.290859     0.021211    Uiso 14.950000 D
   DA3        1.0    -0.466626     0.306931     0.022973    Uiso 14.950000 D
   N          1.0    -0.472083     0.262000     0.007831    Uiso 11.590000 N
   CA         1.0    -0.468857     0.251185    -0.005047    Uiso 12.110000 C
   C          1.0    -0.494306     0.232710    -0.011387    Uiso 10.340000 C
   O          1.0    -0.500271     0.210535    -0.013181    Uiso 11.490000 O
   CB         1.0    -0.453691     0.238005    -0.002325    Uiso 12.680000 C
   CG         1.0    -0.426121     0.255616     0.000469    Uiso  8.130000 C
   CD1        1.0    -0.407951     0.254039    -0.007289    Uiso 12.360000 C
   CD2        1.0    -0.418391     0.273548     0.010876    Uiso 12.970000 C
   CE1        1.0    -0.382616     0.270074    -0.004713    Uiso 14.210000 C
   CE2        1.0    -0.393180     0.289563     0.013463    Uiso 10.140000 C
   CZ         1.0    -0.375299     0.287799     0.005652    Uiso 14.240000 C
   H          0.4800 -0.466832     0.256405     0.016601    Uiso 10.710000 H
   D          0.5200 -0.466832     0.256405     0.016601    Uiso 10.710000 D
   DA         1.0    -0.458445     0.266187    -0.012555    Uiso 11.350000 D
   DB2        1.0    -0.461589     0.225819     0.006716    Uiso 12.030000 D
   DB3        1.0    -0.455063     0.226870    -0.011450    Uiso 12.030000 D
   DD1        1.0    -0.413548     0.240145    -0.015454    Uiso 11.640000 D
   DD2        1.0    -0.432223     0.275087     0.017039    Uiso 12.370000 D
   DE1        1.0    -0.368551     0.268741    -0.010793    Uiso 13.860000 D
   DE2        1.0    -0.387483     0.303495     0.021617    Uiso  8.980000 D
   DZ         1.0    -0.355576     0.300285     0.007644    Uiso 13.900000 D
   N          1.0    -0.509205     0.241741    -0.015079    Uiso 14.510000 N
   CA         1.0    -0.535563     0.224861    -0.018593    Uiso 12.080000 C
   C          1.0    -0.538410     0.208207    -0.031044    Uiso 14.080000 C
   O          1.0    -0.552398     0.185206    -0.030418    Uiso 10.410000 O
   CB         1.0    -0.548588     0.240014    -0.021565    Uiso  9.210000 C
   OG1        1.0    -0.544761     0.256480    -0.010094    Uiso  8.000000 O
   CG2        1.0    -0.576817     0.222514    -0.023828    Uiso 23.209999 C
   H          0.2500 -0.503631     0.260367    -0.015736    Uiso 14.250000 H
   D          0.7500 -0.503631     0.260367    -0.015736    Uiso 14.250000 D
   DA         1.0    -0.544878     0.212638    -0.009708    Uiso 11.340000 D
   DB         1.0    -0.540687     0.251035    -0.031002    Uiso  7.900000 D
   HG1A       0.9100 -0.552695     0.266563    -0.012023    Uiso  6.440000 H
   DG1B       0.0900 -0.552695     0.266563    -0.012023    Uiso  6.440000 D
   DG21       1.0    -0.585728     0.233667    -0.025924    Uiso 24.690001 D
   DG22       1.0    -0.579756     0.210197    -0.032671    Uiso 24.690001 D
   DG23       1.0    -0.585070     0.211211    -0.014495    Uiso 24.690001 D
   N          1.0    -0.525507     0.219510    -0.042557    Uiso 12.030000 N
   CA         1.0    -0.529091     0.204959    -0.055216    Uiso  7.470000 C
   C          1.0    -0.519040     0.186915    -0.053610    Uiso 12.860000 C
   O          1.0    -0.529690     0.166299    -0.059533    Uiso 17.360001 O
   CB         1.0    -0.516583     0.222627    -0.067532    Uiso  6.710000 C
   CG         1.0    -0.526435     0.240483    -0.069722    Uiso  7.250000 C
   OD1        1.0    -0.548265     0.234287    -0.066791    Uiso 13.590000 O
   ND2        1.0    -0.510334     0.262864    -0.074852    Uiso  9.510000 N
   H          0.0000 -0.512800     0.238192    -0.043412    Uiso 10.870000 H
   D          1.0    -0.512800     0.238192    -0.043412    Uiso 10.870000 D
   DA         1.0    -0.549153     0.193843    -0.057427    Uiso  5.400000 D
   DB2        1.0    -0.496442     0.233836    -0.065676    Uiso  4.490000 D
   DB3        1.0    -0.520226     0.211568    -0.077011    Uiso  4.490000 D
   HD21       0.5200 -0.516442     0.274843    -0.077782    Uiso  7.850000 H
   DD21       0.4800 -0.516442     0.274843    -0.077782    Uiso  7.850000 D
   HD22       0.0900 -0.491873     0.268046    -0.075874    Uiso  7.850000 H
   DD22       0.9100 -0.491873     0.268046    -0.075874    Uiso  7.850000 D
   N          1.0    -0.498676     0.194181    -0.045748    Uiso 10.610000 N
   CA         1.0    -0.489308     0.176983    -0.043005    Uiso 16.420000 C
   C          1.0    -0.507673     0.154789    -0.034131    Uiso 15.040000 C
   O          1.0    -0.512596     0.133235    -0.037134    Uiso  9.760000 O
   CB         1.0    -0.463694     0.190877    -0.035904    Uiso  9.450000 C
   OG         1.0    -0.445536     0.209503    -0.044820    Uiso 10.800000 O
   H          0.0000 -0.488424     0.211530    -0.041368    Uiso  8.580000 H
   D          1.0    -0.488424     0.211530    -0.041368    Uiso  8.580000 D
   DA         1.0    -0.487074     0.169547    -0.052891    Uiso 15.550000 D
   DB2        1.0    -0.465426     0.199739    -0.026487    Uiso  7.190000 D
   DB3        1.0    -0.457750     0.177433    -0.033203    Uiso  7.190000 D
   HG         0.2500 -0.436087     0.226645    -0.039679    Uiso  8.800000 H
   DG         0.7500 -0.436087     0.226645    -0.039679    Uiso  8.800000 D
   N          1.0    -0.517913     0.159577    -0.023108    Uiso 20.370001 N
   CA         1.0    -0.535972     0.139036    -0.014338    Uiso 16.719999 C
   C          1.0    -0.557733     0.119547    -0.022973    Uiso 15.680000 C
   O          1.0    -0.566546     0.096847    -0.020752    Uiso 18.370001 O
   CB         1.0    -0.545781     0.149044    -0.002805    Uiso 15.290000 C
   CG         1.0    -0.526728     0.165360     0.008196    Uiso  7.590000 C
   CD1        1.0    -0.539198     0.173396     0.019052    Uiso  9.610000 C
   CD2        1.0    -0.515250     0.151147     0.014745    Uiso  8.900000 C
   H          0.0000 -0.514174     0.177039    -0.020084    Uiso 20.639999 H
   D          1.0    -0.514174     0.177039    -0.020084    Uiso 20.639999 D
   DA         1.0    -0.526640     0.129798    -0.009542    Uiso 16.250000 D
   DB2        1.0    -0.553224     0.160141    -0.007498    Uiso 14.550000 D
   DB3        1.0    -0.560899     0.133084     0.002638    Uiso 14.550000 D
   DG         1.0    -0.511800     0.182015     0.003243    Uiso  5.310000 D
   DD11       1.0    -0.525417     0.185056     0.026873    Uiso  7.730000 D
   DD12       1.0    -0.546799     0.184080     0.014047    Uiso  7.730000 D
   DD13       1.0    -0.554372     0.156836     0.024057    Uiso  7.730000 D
   DD21       1.0    -0.505867     0.160385     0.024402    Uiso  6.870000 D
   DD22       1.0    -0.530231     0.132014     0.016800    Uiso  6.870000 D
   DD23       1.0    -0.501697     0.151034     0.007466    Uiso  6.870000 D
   N          1.0    -0.566525     0.128109    -0.032942    Uiso 13.920000 N
   CA         1.0    -0.587860     0.110966    -0.041483    Uiso 18.139999 C
   C          1.0    -0.581578     0.094068    -0.050117    Uiso 17.070000 C
   O          1.0    -0.596179     0.071142    -0.050680    Uiso 17.680000 O
   CB         1.0    -0.595471     0.126118    -0.050784    Uiso 18.270000 C
   CG         1.0    -0.619617     0.111191    -0.058793    Uiso 28.360001 C
   CD         1.0    -0.619163     0.125367    -0.071828    Uiso 33.970001 C
   NE         1.0    -0.606387     0.152480    -0.069409    Uiso 33.610001 N
   CZ         1.0    -0.607844     0.168721    -0.077887    Uiso 28.389999 C
   NH1        1.0    -0.621780     0.160816    -0.089326    Uiso 57.450001 N
   NH2        1.0    -0.595399     0.192961    -0.074727    Uiso 37.500000 N
   H          0.0000 -0.559210     0.146641    -0.035382    Uiso 13.680000 H
   D          1.0    -0.559210     0.146641    -0.035382    Uiso 13.680000 D
   DA         1.0    -0.603682     0.099062    -0.034736    Uiso 18.740000 D
   DB2        1.0    -0.597822     0.139205    -0.044163    Uiso 18.900000 D
   DB3        1.0    -0.580495     0.136558    -0.058303    Uiso 18.900000 D
   DG2        1.0    -0.621950     0.092998    -0.061723    Uiso 31.010000 D
   DG3        1.0    -0.635236     0.108863    -0.052369    Uiso 31.010000 D
   DD2        1.0    -0.608991     0.121744    -0.080035    Uiso 37.740002 D
   DD3        1.0    -0.638384     0.119153    -0.075144    Uiso 37.740002 D
   HE         1.0    -0.600641     0.158638    -0.059502    Uiso 37.299999 H
   DE         0.0000 -0.600641     0.158638    -0.059502    Uiso 37.299999 D
   HH11       1.0    -0.631379     0.142172    -0.091704    Uiso 65.919998 H
   DH11       0.0000 -0.631379     0.142172    -0.091704    Uiso 65.919998 D
   HH12       0.5200 -0.623023     0.173321    -0.095750    Uiso 65.919998 H
   DH12       0.4800 -0.623023     0.173321    -0.095750    Uiso 65.919998 D
   HH21       0.0000 -0.584730     0.198819    -0.065884    Uiso 41.970001 H
   DH21       1.0    -0.584730     0.198819    -0.065884    Uiso 41.970001 D
   HH22       1.0    -0.596448     0.205691    -0.081067    Uiso 41.970001 H
   DH22       0.0000 -0.596448     0.205691    -0.081067    Uiso 41.970001 D
   N          1.0    -0.559760     0.105183    -0.056947    Uiso 15.130000 N
   CA         1.0    -0.551587     0.090538    -0.065102    Uiso 14.600000 C
   C          1.0    -0.550768     0.070485    -0.056196    Uiso 14.640000 C
   O          1.0    -0.561439     0.048329    -0.060024    Uiso 12.330000 O
   CB         1.0    -0.525881     0.108000    -0.071515    Uiso 11.700000 C
   CG         1.0    -0.526715     0.125518    -0.082392    Uiso 18.139999 C
   SD         1.0    -0.496308     0.149551    -0.088336    Uiso 11.920000 S
   CE         1.0    -0.505369     0.165022    -0.100933    Uiso  4.920000 C
   H          0.2300 -0.547565     0.124109    -0.057020    Uiso 14.370000 H
   D          0.7700 -0.547565     0.124109    -0.057020    Uiso 14.370000 D
   DA         1.0    -0.564900     0.081375    -0.073590    Uiso 13.740000 D
   DB2        1.0    -0.513058     0.119434    -0.063267    Uiso 10.260000 D
   DB3        1.0    -0.518826     0.096809    -0.076469    Uiso 10.260000 D
   DG2        1.0    -0.537079     0.114383    -0.091422    Uiso 17.990000 D
   DG3        1.0    -0.536279     0.134812    -0.077939    Uiso 17.990000 D
   DE1        1.0    -0.488540     0.180306    -0.105646    Uiso  2.130000 D
   DE2        1.0    -0.516925     0.151504    -0.108879    Uiso  2.130000 D
   DE3        1.0    -0.516051     0.172439    -0.095750    Uiso  2.130000 D
   N          1.0    -0.538082     0.077939    -0.044215    Uiso 11.760000 N
   CA         1.0    -0.537179     0.059745    -0.034850    Uiso  9.330000 C
   C          1.0    -0.563485     0.039035    -0.030888    Uiso 12.130000 C
   O          1.0    -0.567794     0.017311    -0.029136    Uiso 14.920000 O
   CB         1.0    -0.522047     0.073001    -0.021795    Uiso  8.110000 C
   CG         1.0    -0.494510     0.093148    -0.024037    Uiso 16.790001 C
   CD1        1.0    -0.483942     0.108431    -0.010835    Uiso  9.710000 C
   CD2        1.0    -0.478445     0.081863    -0.028479    Uiso  7.470000 C
   H          0.2900 -0.528469     0.096058    -0.040794    Uiso 10.270000 H
   D          0.7100 -0.528469     0.096058    -0.040794    Uiso 10.270000 D
   DA         1.0    -0.527648     0.051165    -0.040148    Uiso  7.350000 D
   DB2        1.0    -0.531261     0.082051    -0.016685    Uiso  5.890000 D
   DB3        1.0    -0.522200     0.058938    -0.014818    Uiso  5.890000 D
   DG         1.0    -0.493458     0.105822    -0.032306    Uiso 16.299999 D
   DD11       1.0    -0.464368     0.122701    -0.012524    Uiso  7.810000 D
   DD12       1.0    -0.494724     0.117500    -0.008134    Uiso  7.810000 D
   DD13       1.0    -0.485118     0.096096    -0.002346    Uiso  7.810000 D
   DD21       1.0    -0.459093     0.096828    -0.029939    Uiso  5.120000 D
   DD22       1.0    -0.479111     0.069021    -0.020439    Uiso  5.120000 D
   DD23       1.0    -0.485634     0.071649    -0.038239    Uiso  5.120000 D
   N          1.0    -0.581311     0.045269    -0.029532    Uiso 12.650000 N
   CA         1.0    -0.607095     0.026286    -0.026122    Uiso 12.020000 C
   C          1.0    -0.619737     0.008806    -0.038417    Uiso 14.070000 C
   O          1.0    -0.634680    -0.013763    -0.036498    Uiso 14.680000 O
   CB         1.0    -0.622082     0.038848    -0.021669    Uiso 10.640000 C
   CG         1.0    -0.645310     0.022212    -0.013056    Uiso 21.910000 C
   CD         1.0    -0.656955     0.036613    -0.006705    Uiso 22.530001 C
   OE1        1.0    -0.647163     0.059482    -0.008269    Uiso 18.059999 O
   NE2        1.0    -0.677939     0.023263     0.000532    Uiso 41.139999 N
   H          0.0400 -0.578474     0.062975    -0.030783    Uiso 11.360000 H
   D          0.9600 -0.578474     0.062975    -0.030783    Uiso 11.360000 D
   DA         1.0    -0.606953     0.014927    -0.017446    Uiso 10.590000 D
   DB2        1.0    -0.610043     0.055577    -0.015569    Uiso  8.940000 D
   DB3        1.0    -0.628413     0.044105    -0.031013    Uiso  8.940000 D
   DG2        1.0    -0.659359     0.007642    -0.019761    Uiso 22.469999 D
   DG3        1.0    -0.640302     0.013725    -0.004578    Uiso 22.469999 D
   HE21       0.1700 -0.685402     0.004337     0.001564    Uiso 45.540001 H
   DE21       0.8300 -0.685402     0.004337     0.001564    Uiso 45.540001 D
   HE22       0.5900 -0.686602     0.031919     0.005068    Uiso 45.540001 H
   DE22       0.4100 -0.686602     0.031919     0.005068    Uiso 45.540001 D
   N          1.0    -0.614003     0.018907    -0.051108    Uiso 10.970000 N
   CA         1.0    -0.623079     0.003943    -0.063778    Uiso 12.140000 C
   C          1.0    -0.607653    -0.008261    -0.067824    Uiso 11.830000 C
   O          1.0    -0.611815    -0.019414    -0.079086    Uiso 20.280001 O
   CB         1.0    -0.623111     0.020334    -0.075770    Uiso 16.400000 C
   CG         1.0    -0.641816     0.029460    -0.073903    Uiso 22.270000 C
   CD         1.0    -0.636796     0.050883    -0.083695    Uiso 23.480000 C
   OE1        1.0    -0.615927     0.063970    -0.088940    Uiso 25.760000 O
   NE2        1.0    -0.655985     0.054488    -0.086240    Uiso 26.870001 N
   H          0.3700 -0.603022     0.037683    -0.052922    Uiso 10.060000 H
   D          0.6300 -0.603022     0.037683    -0.052922    Uiso 10.060000 D
   DA         1.0    -0.642376    -0.011040    -0.062140    Uiso 11.460000 D
   DB2        1.0    -0.604476     0.036857    -0.076635    Uiso 16.570000 D
   DB3        1.0    -0.627834     0.009426    -0.085384    Uiso 16.570000 D
   DG2        1.0    -0.660670     0.013932    -0.075999    Uiso 23.610001 D
   DG3        1.0    -0.640745     0.035994    -0.063225    Uiso 23.610001 D
   HE21       1.0    -0.672970     0.043185    -0.081662    Uiso 29.129999 H
   DE21       0.0000 -0.672970     0.043185    -0.081662    Uiso 29.129999 D
   HE22       0.0000 -0.653750     0.068551    -0.092767    Uiso 29.129999 H
   DE22       1.0    -0.653750     0.068551    -0.092767    Uiso 29.129999 D
   N          1.0    -0.590246    -0.006553    -0.058908    Uiso  9.280000 N
   CA         1.0    -0.574291    -0.017405    -0.061765    Uiso  8.260000 C
   C          1.0    -0.562081    -0.009670    -0.076135    Uiso 11.050000 C
   O          1.0    -0.559828    -0.024578    -0.083758    Uiso 11.220000 O
   CB         1.0    -0.589265    -0.046020    -0.060462    Uiso 14.070000 C
   CG         1.0    -0.601718    -0.055220    -0.046384    Uiso 11.270000 C
   CD         1.0    -0.605607    -0.081112    -0.042953    Uiso 14.590000 C
   CE         1.0    -0.614129    -0.088529    -0.027926    Uiso 26.110001 C
   NZ         1.0    -0.594371    -0.071875    -0.017728    Uiso 19.840000 N
   H          0.2100 -0.586784     0.002159    -0.049460    Uiso  8.460000 H
   D          0.7900 -0.586784     0.002159    -0.049460    Uiso  8.460000 D
   DA         1.0    -0.559330    -0.010346    -0.054017    Uiso  7.230000 D
   DB2        1.0    -0.603868    -0.053568    -0.068429    Uiso 14.210000 D
   DB3        1.0    -0.576491    -0.053286    -0.061953    Uiso 14.210000 D
   DG2        1.0    -0.589781    -0.042077    -0.038417    Uiso 10.850000 D
   DG3        1.0    -0.620000    -0.056403    -0.046467    Uiso 10.850000 D
   DD2        1.0    -0.619907    -0.095044    -0.049835    Uiso 14.830000 D
   DD3        1.0    -0.587866    -0.080849    -0.044288    Uiso 14.830000 D
   DE2        1.0    -0.630948    -0.087177    -0.026091    Uiso 28.660000 D
   DE3        1.0    -0.618162    -0.107718    -0.026133    Uiso 28.660000 D
   HZ1A       0.0100 -0.601750    -0.074991    -0.007696    Uiso 21.129999 H
   DZ1B       0.9900 -0.601750    -0.074991    -0.007696    Uiso 21.129999 D
   HZ2A       0.0400 -0.579572    -0.075480    -0.017936    Uiso 21.129999 H
   DZ2B       0.9600 -0.579572    -0.075480    -0.017936    Uiso 21.129999 D
   HZ3A       0.1000 -0.587512    -0.053117    -0.020293    Uiso 21.129999 H
   DZ3B       0.9000 -0.587512    -0.053117    -0.020293    Uiso 21.129999 D
   N          1.0    -0.554115     0.013969    -0.079920    Uiso  9.310000 N
   CA         1.0    -0.539286     0.024897    -0.092548    Uiso 11.180000 C
   C          1.0    -0.511776     0.039918    -0.088137    Uiso 10.300000 C
   O          1.0    -0.501092     0.062749    -0.086177    Uiso  8.180000 O
   CB         1.0    -0.547776     0.041119    -0.100140    Uiso 14.580000 C
   CG         1.0    -0.575428     0.027864    -0.104436    Uiso 16.180000 C
   CD         1.0    -0.580540     0.047071    -0.111444    Uiso 23.830000 C
   NE         1.0    -0.606830     0.038491    -0.114927    Uiso 27.450001 N
   CZ         1.0    -0.616970     0.030567    -0.127493    Uiso 30.639999 C
   NH1        1.0    -0.603500     0.029572    -0.138025    Uiso 48.389999 N
   NH2        1.0    -0.640967     0.023451    -0.129516    Uiso 39.549999 N
   H          0.8400 -0.557618     0.026117    -0.074425    Uiso  8.280000 H
   D          0.1600 -0.557618     0.026117    -0.074425    Uiso  8.280000 D
   DA         1.0    -0.541707     0.009876    -0.099525    Uiso 10.520000 D
   DB2        1.0    -0.544698     0.056478    -0.093226    Uiso 14.610000 D
   DB3        1.0    -0.536404     0.048742    -0.109515    Uiso 14.610000 D
   DG2        1.0    -0.579462     0.012674    -0.111726    Uiso 16.530001 D
   DG3        1.0    -0.587231     0.020616    -0.095187    Uiso 16.530001 D
   DD2        1.0    -0.574449     0.062862    -0.104311    Uiso 25.709999 D
   DD3        1.0    -0.569354     0.053605    -0.120923    Uiso 25.709999 D
   HE         0.0000 -0.619091     0.033252    -0.106772    Uiso 30.049999 H
   DE         1.0    -0.619091     0.033252    -0.106772    Uiso 30.049999 D
   HH11       0.6000 -0.585116     0.034829    -0.136680    Uiso 55.180000 H
   DH11       0.4000 -0.585116     0.034829    -0.136680    Uiso 55.180000 D
   HH12       1.0    -0.611667     0.023320    -0.147535    Uiso 55.180000 H
   DH12       0.0000 -0.611667     0.023320    -0.147535    Uiso 55.180000 D
   HH21       1.0    -0.651493     0.024221    -0.121497    Uiso 44.560001 H
   DH21       0.0000 -0.651493     0.024221    -0.121497    Uiso 44.560001 D
   HH22       0.0000 -0.648920     0.017236    -0.139078    Uiso 44.560001 H
   DH22       1.0    -0.648920     0.017236    -0.139078    Uiso 44.560001 D
   N          1.0    -0.500188     0.026606    -0.086605    Uiso 11.280000 N
   CA         1.0    -0.476157     0.037139    -0.079336    Uiso 12.670000 C
   C          1.0    -0.454983     0.058187    -0.087710    Uiso  9.740000 C
   O          1.0    -0.442801     0.079591    -0.082809    Uiso  8.330000 O
   CB         1.0    -0.470027     0.016391    -0.076145    Uiso 12.150000 C
   CG         1.0    -0.490595    -0.005914    -0.068637    Uiso 16.330000 C
   CD1        1.0    -0.501796    -0.030398    -0.072756    Uiso 10.150000 C
   CD2        1.0    -0.502382    -0.005783    -0.055748    Uiso 13.520000 C
   NE1        1.0    -0.519727    -0.045513    -0.063256    Uiso  9.980000 N
   CE2        1.0    -0.520486    -0.030868    -0.052724    Uiso 13.940000 C
   CE3        1.0    -0.499361     0.013106    -0.046488    Uiso 17.200001 C
   CZ2        1.0    -0.535519    -0.037552    -0.040836    Uiso 17.930000 C
   CZ3        1.0    -0.514296     0.006421    -0.034715    Uiso 13.660000 C
   CH2        1.0    -0.532158    -0.018701    -0.031983    Uiso 16.580000 C
   H          0.0000 -0.506930     0.008731    -0.090181    Uiso 10.360000 H
   D          1.0    -0.506930     0.008731    -0.090181    Uiso 10.360000 D
   DA         1.0    -0.477666     0.045081    -0.069471    Uiso 12.030000 D
   DB2        1.0    -0.466333     0.009764    -0.085906    Uiso 11.400000 D
   DB3        1.0    -0.453383     0.024183    -0.069544    Uiso 11.400000 D
   DD1        1.0    -0.497128    -0.036932    -0.082121    Uiso  9.000000 D
   HE1A       0.6000 -0.530726    -0.064552    -0.063924    Uiso  8.800000 H
   DE1B       0.4000 -0.530726    -0.064552    -0.063924    Uiso  8.800000 D
   DE3        1.0    -0.485667     0.032558    -0.048459    Uiso 17.469999 D
   DZ2        1.0    -0.549312    -0.056910    -0.038698    Uiso 18.340000 D
   DZ3        1.0    -0.512092     0.020879    -0.027509    Uiso 13.210000 D
   DH2        1.0    -0.543548    -0.023301    -0.022660    Uiso 16.709999 D
   N          1.0    -0.449893     0.052366    -0.100265    Uiso  8.220000 N
   CA         1.0    -0.429958     0.071555    -0.108920    Uiso 11.460000 C
   C          1.0    -0.432551     0.094856    -0.110224    Uiso  9.230000 C
   O          1.0    -0.413917     0.116092    -0.109369    Uiso 10.560000 O
   CB         1.0    -0.430077     0.060909    -0.123374    Uiso 15.230000 C
   CG         1.0    -0.412298     0.050583    -0.124416    Uiso  8.850000 C
   OD1        1.0    -0.408977     0.040575    -0.113915    Uiso  4.240000 O
   OD2        1.0    -0.401659     0.052479    -0.135814    Uiso 12.410000 O
   H          0.2400 -0.458926     0.034886    -0.104635    Uiso  6.660000 H
   D          0.7600 -0.458926     0.034886    -0.104635    Uiso  6.660000 D
   DA         1.0    -0.411859     0.077151    -0.104113    Uiso 10.550000 D
   DB2        1.0    -0.448945     0.045644    -0.125730    Uiso 15.080000 D
   DB3        1.0    -0.424230     0.075855    -0.131070    Uiso 15.080000 D
   N          1.0    -0.455579     0.091270    -0.112268    Uiso  7.110000 N
   CA         1.0    -0.459676     0.112637    -0.113238    Uiso  5.390000 C
   C          1.0    -0.454120     0.126644    -0.099421    Uiso 10.990000 C
   O          1.0    -0.443518     0.149832    -0.099222    Uiso 10.750000 O
   CB         1.0    -0.486646     0.103737    -0.117878    Uiso  4.830000 C
   CG         1.0    -0.493869     0.089618    -0.131654    Uiso 17.080000 C
   CD         1.0    -0.521353     0.079103    -0.135199    Uiso 21.040001 C
   OE1        1.0    -0.530211     0.093486    -0.134730    Uiso  5.780000 O
   OE2        1.0    -0.534079     0.056384    -0.138380    Uiso 10.750000 O
   H          0.2600 -0.471440     0.074184    -0.113290    Uiso  6.100000 H
   D          0.7400 -0.471440     0.074184    -0.113290    Uiso  6.100000 D
   DA         1.0    -0.446911     0.125874    -0.120944    Uiso  4.040000 D
   DB2        1.0    -0.499385     0.091139    -0.109963    Uiso  3.360000 D
   DB3        1.0    -0.489202     0.119960    -0.118973    Uiso  3.360000 D
   DG2        1.0    -0.482716     0.102329    -0.140027    Uiso 18.059999 D
   DG3        1.0    -0.490468     0.073884    -0.131007    Uiso 18.059999 D
   N          1.0    -0.461166     0.112975    -0.087731    Uiso  5.980000 N
   CA         1.0    -0.455307     0.125311    -0.074143    Uiso  5.680000 C
   C          1.0    -0.427019     0.140651    -0.071911    Uiso  6.390000 C
   O          1.0    -0.417310     0.161793    -0.066635    Uiso  7.470000 O
   CB         1.0    -0.467783     0.105822    -0.062568    Uiso  8.060000 C
   H          0.0000 -0.470716     0.093842    -0.087324    Uiso  4.660000 H
   D          1.0    -0.470716     0.093842    -0.087324    Uiso  4.660000 D
   DA         1.0    -0.462795     0.138041    -0.073643    Uiso  4.290000 D
   DB1        1.0    -0.463291     0.115228    -0.052474    Uiso  7.160000 D
   DB2        1.0    -0.488076     0.095739    -0.064059    Uiso  7.160000 D
   DB3        1.0    -0.460890     0.092584    -0.062902    Uiso  7.160000 D
   N          1.0    -0.413500     0.130324    -0.076041    Uiso  5.220000 N
   CA         1.0    -0.386254     0.143580    -0.074487    Uiso 16.590000 C
   C          1.0    -0.373644     0.168214    -0.082652    Uiso  9.850000 C
   O          1.0    -0.354980     0.186878    -0.077845    Uiso  8.070000 O
   CB         1.0    -0.376138     0.126513    -0.079117    Uiso 11.900000 C
   H          0.0000 -0.420837     0.112919    -0.080379    Uiso  4.140000 H
   D          1.0    -0.420837     0.112919    -0.080379    Uiso  4.140000 D
   DA         1.0    -0.381543     0.148124    -0.063517    Uiso 17.780001 D
   DB1        1.0    -0.355783     0.136426    -0.077949    Uiso 12.160000 D
   DB2        1.0    -0.384399     0.109633    -0.072694    Uiso 12.160000 D
   DB3        1.0    -0.381008     0.121293    -0.090014    Uiso 12.160000 D
   N          1.0    -0.383358     0.168721    -0.095020    Uiso  7.390000 N
   CA         1.0    -0.372102     0.191722    -0.103341    Uiso  5.690000 C
   C          1.0    -0.377300     0.211211    -0.096761    Uiso  8.870000 C
   O          1.0    -0.361117     0.233724    -0.096730    Uiso  9.530000 O
   CB         1.0    -0.381786     0.185882    -0.118462    Uiso  7.620000 C
   CG1        1.0    -0.373892     0.209897    -0.126742    Uiso 11.410000 C
   CG2        1.0    -0.372049     0.170430    -0.125470    Uiso 11.570000 C
   H          0.6800 -0.398598     0.153851    -0.099494    Uiso  5.080000 H
   D          0.3200 -0.398598     0.153851    -0.099494    Uiso  5.080000 D
   DA         1.0    -0.351827     0.199589    -0.103644    Uiso  3.050000 D
   DB         1.0    -0.402223     0.174992    -0.118493    Uiso  5.360000 D
   DG11       1.0    -0.380807     0.204621    -0.137358    Uiso  9.910000 D
   DG12       1.0    -0.382103     0.220336    -0.122133    Uiso  9.910000 D
   DG13       1.0    -0.353478     0.221294    -0.126815    Uiso  9.910000 D
   DG21       1.0    -0.362577     0.179780    -0.135095    Uiso 10.110000 D
   DG22       1.0    -0.358839     0.169078    -0.118431    Uiso 10.110000 D
   DG23       1.0    -0.387796     0.151748    -0.127618    Uiso 10.110000 D
   N          1.0    -0.399932     0.202987    -0.091151    Uiso  7.310000 N
   CA         1.0    -0.406293     0.220411    -0.084509    Uiso  7.770000 C
   C          1.0    -0.391341     0.231226    -0.071098    Uiso 10.230000 C
   O          1.0    -0.382371     0.253720    -0.068262    Uiso  6.900000 O
   CB         1.0    -0.434431     0.207193    -0.081537    Uiso  7.500000 C
   CG         1.0    -0.442943     0.225030    -0.076448    Uiso  9.230000 C
   OD1        1.0    -0.443454     0.229048    -0.063903    Uiso 13.900000 O
   ND2        1.0    -0.449791     0.235789    -0.086187    Uiso 10.320000 N
   H          0.2500 -0.414019     0.184700    -0.091078    Uiso  5.820000 H
   D          0.7500 -0.414019     0.184700    -0.091078    Uiso  5.820000 D
   DA         1.0    -0.401800     0.235902    -0.091641    Uiso  6.370000 D
   DB2        1.0    -0.444604     0.198293    -0.091099    Uiso  6.050000 D
   DB3        1.0    -0.438882     0.193055    -0.073486    Uiso  6.050000 D
   HD21       0.0700 -0.455782     0.247937    -0.083333    Uiso  9.430000 H
   DD21       0.9300 -0.455782     0.247937    -0.083333    Uiso  9.430000 D
   HD22       0.2900 -0.449068     0.231902    -0.096459    Uiso  9.430000 H
   DD22       0.7100 -0.449068     0.231902    -0.096459    Uiso  9.430000 D
   N          1.0    -0.388412     0.215492    -0.062756    Uiso 12.760000 N
   CA         1.0    -0.375619     0.223810    -0.049356    Uiso 11.410000 C
   C          1.0    -0.348314     0.244501    -0.050826    Uiso 13.380000 C
   O          1.0    -0.337251     0.257813    -0.040648    Uiso 11.910000 O
   CB         1.0    -0.377002     0.201466    -0.041587    Uiso  8.330000 C
   CG         1.0    -0.402371     0.183704    -0.034892    Uiso 10.950000 C
   CD1        1.0    -0.404034     0.158751    -0.031576    Uiso 15.330000 C
   CD2        1.0    -0.406126     0.195477    -0.021805    Uiso 13.280000 C
   H          0.0000 -0.394646     0.197073    -0.064946    Uiso 12.560000 H
   D          1.0    -0.394646     0.197073    -0.064946    Uiso 12.560000 D
   DA         1.0    -0.385323     0.231133    -0.043078    Uiso 10.930000 D
   DB2        1.0    -0.373007     0.190464    -0.048980    Uiso  7.240000 D
   DB3        1.0    -0.362852     0.208432    -0.033390    Uiso  7.240000 D
   DG         1.0    -0.417352     0.180212    -0.042202    Uiso 10.380000 D
   DD11       1.0    -0.418555     0.148800    -0.023713    Uiso 15.630000 D
   DD12       1.0    -0.408707     0.147617    -0.041097    Uiso 15.630000 D
   DD13       1.0    -0.385888     0.162394    -0.027645    Uiso 15.630000 D
   DD21       1.0    -0.425934     0.185357    -0.018958    Uiso 13.180000 D
   DD22       1.0    -0.394876     0.194238    -0.013400    Uiso 13.180000 D
   DD23       1.0    -0.400202     0.215098    -0.023870    Uiso 13.180000 D
   N          1.0    -0.337211     0.247618    -0.063173    Uiso 12.640000 N
   CA         1.0    -0.310801     0.266000    -0.065269    Uiso 12.210000 C
   C          1.0    -0.306322     0.291704    -0.069680    Uiso 11.550000 C
   O          1.0    -0.284666     0.309748    -0.069711    Uiso 15.250000 O
   CB         1.0    -0.299501     0.256405    -0.076187    Uiso  9.100000 C
   H          0.2200 -0.346086     0.237704    -0.071911    Uiso 12.370000 H
   D          0.7800 -0.346086     0.237704    -0.071911    Uiso 12.370000 D
   DA         1.0    -0.300695     0.268422    -0.055519    Uiso 11.860000 D
   DB1        1.0    -0.280215     0.271107    -0.078200    Uiso  8.120000 D
   DB2        1.0    -0.299884     0.239638    -0.072151    Uiso  8.120000 D
   DB3        1.0    -0.310568     0.251993    -0.085718    Uiso  8.120000 D
   N          1.0    -0.326023     0.293863    -0.073424    Uiso  7.660000 N
   CA         1.0    -0.323592     0.318009    -0.077282    Uiso  9.610000 C
   C          1.0    -0.327873     0.329838    -0.064289    Uiso 10.540000 C
   O          1.0    -0.347227     0.330739    -0.062443    Uiso 12.250000 O
   CB         1.0    -0.341970     0.314554    -0.088909    Uiso  8.880000 C
   CG         1.0    -0.340151     0.301054    -0.101902    Uiso 11.030000 C
   CD         1.0    -0.357522     0.300491    -0.113446    Uiso 15.790000 C
   CE         1.0    -0.352426     0.291854    -0.127430    Uiso 26.160000 C
   NZ         1.0    -0.363054     0.299346    -0.139203    Uiso 45.189999 N
   H          0.1800 -0.343989     0.279199    -0.073841    Uiso  7.120000 H
   D          0.8200 -0.343989     0.279199    -0.073841    Uiso  7.120000 D
   DA         1.0    -0.304619     0.330589    -0.081067    Uiso  9.460000 D
   DB2        1.0    -0.361036     0.303739    -0.084832    Uiso  8.580000 D
   DB3        1.0    -0.338407     0.333030    -0.092173    Uiso  8.580000 D
   DG2        1.0    -0.320928     0.310818    -0.105823    Uiso 11.160000 D
   DG3        1.0    -0.345707     0.281715    -0.099285    Uiso 11.160000 D
   DD2        1.0    -0.376917     0.287423    -0.110474    Uiso 16.870001 D
   DD3        1.0    -0.354949     0.319230    -0.114854    Uiso 16.870001 D
   DE2        1.0    -0.332214     0.300604    -0.129067    Uiso 29.320000 D
   DE3        1.0    -0.361095     0.271426    -0.127607    Uiso 29.320000 D
   HZ1A       0.4600 -0.368093     0.286503    -0.147327    Uiso 52.150002 H
   DZ1B       0.5400 -0.368093     0.286503    -0.147327    Uiso 52.150002 D
   HZ2A       0.4300 -0.378865     0.299853    -0.135866    Uiso 52.150002 H
   DZ2B       0.5700 -0.378865     0.299853    -0.135866    Uiso 52.150002 D
   HZ3A       0.0000 -0.349750     0.317108    -0.142738    Uiso 52.150002 H
   DZ3B       1.0    -0.349750     0.317108    -0.142738    Uiso 52.150002 D
   N          1.0    -0.309015     0.339132    -0.055164    Uiso 11.280000 N
   CA         1.0    -0.311582     0.347656    -0.041420    Uiso  9.140000 C
   C          1.0    -0.285662     0.364667    -0.035257    Uiso  9.660000 C
   O          1.0    -0.267267     0.363278    -0.039105    Uiso 14.840000 O
   CB         1.0    -0.327048     0.325407    -0.031701    Uiso  6.950000 C
   OG         1.0    -0.318243     0.308058    -0.032066    Uiso  9.740000 O
   H          0.1800 -0.291806     0.341028    -0.057010    Uiso 10.640000 H
   D          0.8200 -0.291806     0.341028    -0.057010    Uiso 10.640000 D
   DA         1.0    -0.321248     0.358340    -0.042379    Uiso  8.080000 D
   DB2        1.0    -0.325263     0.332392    -0.021085    Uiso  5.440000 D
   DB3        1.0    -0.346629     0.316000    -0.034944    Uiso  5.440000 D
   HG         0.0800 -0.308372     0.309166    -0.023088    Uiso  8.800000 H
   DG         0.9200 -0.308372     0.309166    -0.023088    Uiso  8.800000 D
   N          1.0    -0.284487     0.380871    -0.025580    Uiso 11.940000 N
   CA         1.0    -0.261714     0.395197    -0.017331    Uiso 10.480000 C
   C          1.0    -0.254826     0.377754    -0.009740    Uiso 11.490000 C
   O          1.0    -0.232785     0.382486    -0.009291    Uiso 11.540000 O
   CB         1.0    -0.265047     0.411945    -0.006830    Uiso 14.130000 C
   CG         1.0    -0.241718     0.427417     0.002054    Uiso 13.490000 C
   CD         1.0    -0.245131     0.444428     0.012149    Uiso 22.520000 C
   NE         1.0    -0.221247     0.464424     0.017582    Uiso 28.270000 N
   CZ         1.0    -0.219135     0.479314     0.028166    Uiso 31.690001 C
   NH1        1.0    -0.239505     0.476460     0.034517    Uiso 41.700001 N
   NH2        1.0    -0.196687     0.497057     0.032431    Uiso 29.010000 N
   H          0.0300 -0.298614     0.384420    -0.023296    Uiso 11.010000 H
   D          0.9700 -0.298614     0.384420    -0.023296    Uiso 11.010000 D
   DA         1.0    -0.246218     0.407327    -0.024183    Uiso  9.260000 D
   DB2        1.0    -0.269467     0.424732    -0.012357    Uiso 13.650000 D
   DB3        1.0    -0.280449     0.400004     0.000146    Uiso 13.650000 D
   DG2        1.0    -0.237795     0.414743     0.008113    Uiso 12.880000 D
   DG3        1.0    -0.225814     0.438964    -0.004713    Uiso 12.880000 D
   DD2        1.0    -0.254508     0.453121     0.006768    Uiso 23.709999 D
   DD3        1.0    -0.256338     0.433331     0.021012    Uiso 23.709999 D
   HE         1.0    -0.205175     0.467203     0.012962    Uiso 30.610001 H
   DE         0.0000 -0.205175     0.467203     0.012962    Uiso 30.610001 D
   HH11       0.6000 -0.256887     0.462997     0.031420    Uiso 46.730000 H
   DH11       0.4000 -0.256887     0.462997     0.031420    Uiso 46.730000 D
   HH12       0.5800 -0.238072     0.487782     0.042609    Uiso 46.730000 H
   DH12       0.4200 -0.238072     0.487782     0.042609    Uiso 46.730000 D
   HH21       0.1700 -0.181005     0.499216     0.027572    Uiso 31.500000 H
   DH21       0.8300 -0.181005     0.499216     0.027572    Uiso 31.500000 D
   HH22       0.3200 -0.195156     0.508379     0.040596    Uiso 31.500000 H
   DH22       0.6800 -0.195156     0.508379     0.040596    Uiso 31.500000 D
   N          1.0    -0.273493     0.357720    -0.003514    Uiso 11.350000 N
   CA         1.0    -0.269139     0.339339     0.003702    Uiso 12.950000 C
   C          1.0    -0.252963     0.332016    -0.004891    Uiso 12.220000 C
   O          1.0    -0.236991     0.328449     0.000824    Uiso 11.840000 O
   CB         1.0    -0.294304     0.316132     0.007195    Uiso 14.700000 C
   CG         1.0    -0.291827     0.294971     0.012993    Uiso 14.610000 C
   CD1        1.0    -0.278361     0.295628     0.024422    Uiso 11.670000 C
   CD2        1.0    -0.303222     0.269905     0.007675    Uiso 12.090000 C
   NE1        1.0    -0.280610     0.272496     0.026560    Uiso 11.520000 N
   CE2        1.0    -0.295805     0.256349     0.016414    Uiso 11.910000 C
   CE3        1.0    -0.318974     0.257588    -0.003619    Uiso 13.900000 C
   CZ2        1.0    -0.303577     0.231114     0.014203    Uiso  9.850000 C
   CZ3        1.0    -0.326696     0.232484    -0.005808    Uiso 19.870001 C
   CH2        1.0    -0.318970     0.219548     0.003066    Uiso 15.370000 C
   H          0.0000 -0.291636     0.353890    -0.003191    Uiso 10.100000 H
   D          1.0    -0.291636     0.353890    -0.003191    Uiso 10.100000 D
   DA         1.0    -0.259358     0.347356     0.013483    Uiso 12.020000 D
   DB2        1.0    -0.303931     0.321201     0.014954    Uiso 14.130000 D
   DB3        1.0    -0.305589     0.309560    -0.002273    Uiso 14.130000 D
   DD1        1.0    -0.267501     0.311982     0.030825    Uiso 10.490000 D
   HE1A       0.6100 -0.272337     0.268065     0.034423    Uiso 10.310000 H
   DE1B       0.3900 -0.272337     0.268065     0.034423    Uiso 10.310000 D
   DE3        1.0    -0.324986     0.267483    -0.010491    Uiso 13.170000 D
   DZ2        1.0    -0.297708     0.221031     0.021012    Uiso  8.300000 D
   DZ3        1.0    -0.338895     0.222721    -0.014495    Uiso 20.330000 D
   DH2        1.0    -0.325337     0.199983     0.001074    Uiso 14.930000 D
   N          1.0    -0.256755     0.329669    -0.018645    Uiso  9.900000 N
   CA         1.0    -0.242498     0.321858    -0.027436    Uiso 10.360000 C
   C          1.0    -0.216483     0.343807    -0.030856    Uiso  8.890000 C
   O          1.0    -0.198183     0.340634    -0.031242    Uiso  9.660000 O
   CB         1.0    -0.257076     0.309710    -0.040867    Uiso 12.220000 C
   CG         1.0    -0.243158     0.302425    -0.051170    Uiso 14.190000 C
   CD1        1.0    -0.246494     0.278354    -0.051264    Uiso 11.220000 C
   CD2        1.0    -0.226788     0.319586    -0.060868    Uiso 19.440001 C
   CE1        1.0    -0.233874     0.271595    -0.060701    Uiso 12.940000 C
   CE2        1.0    -0.214026     0.313015    -0.070326    Uiso 22.870001 C
   CZ         1.0    -0.217659     0.289000    -0.070191    Uiso 18.280001 C
   OH         1.0    -0.205115     0.282316    -0.079576    Uiso 10.560000 O
   H          0.0000 -0.269335     0.332898    -0.023818    Uiso  8.910000 H
   D          1.0    -0.269335     0.332898    -0.023818    Uiso  8.910000 D
   DA         1.0    -0.240001     0.307795    -0.021868    Uiso  9.460000 D
   DB2        1.0    -0.274342     0.292511    -0.038135    Uiso 11.690000 D
   DB3        1.0    -0.261629     0.322684    -0.046092    Uiso 11.690000 D
   DD1        1.0    -0.259161     0.264629    -0.043839    Uiso 10.480000 D
   DD2        1.0    -0.223944     0.338381    -0.060952    Uiso 20.350000 D
   DE1        1.0    -0.236660     0.252819    -0.060639    Uiso 12.550000 D
   DE2        1.0    -0.201319     0.326590    -0.077782    Uiso 24.459999 D
   HH         0.7800 -0.194451     0.296717    -0.085541    Uiso  9.690000 H
   DH         0.2200 -0.194451     0.296717    -0.085541    Uiso  9.690000 D
   N          1.0    -0.214319     0.366151    -0.033349    Uiso 14.440000 N
   CA         1.0    -0.189886     0.387668    -0.036821    Uiso 11.690000 C
   C          1.0    -0.172901     0.397150    -0.024037    Uiso 14.890000 C
   O          1.0    -0.150467     0.403384    -0.024944    Uiso 10.410000 O
   CB         1.0    -0.193169     0.408678    -0.043130    Uiso 11.400000 C
   CG         1.0    -0.206481     0.401600    -0.057166    Uiso 13.950000 C
   OD1        1.0    -0.194892     0.411119    -0.068011    Uiso  7.570000 O
   ND2        1.0    -0.230895     0.384739    -0.057010    Uiso 11.840000 N
   H          0.0000 -0.228690     0.369962    -0.033046    Uiso 14.060000 H
   D          1.0    -0.228690     0.369962    -0.033046    Uiso 14.060000 D
   DA         1.0    -0.180760     0.382017    -0.044601    Uiso 10.760000 D
   DB2        1.0    -0.204046     0.413297    -0.035977    Uiso 10.420000 D
   DB3        1.0    -0.174720     0.425089    -0.044799    Uiso 10.420000 D
   HD21       0.6100 -0.240735     0.379238    -0.066124    Uiso 10.940000 H
   DD21       0.3900 -0.240735     0.379238    -0.066124    Uiso 10.940000 D
   HD22       0.6700 -0.239757     0.377322    -0.047771    Uiso 10.940000 H
   DD22       0.3300 -0.239757     0.377322    -0.047771    Uiso 10.940000 D
   N          1.0    -0.183311     0.398183    -0.012013    Uiso 12.660000 N
   CA         1.0    -0.168098     0.409260     0.000459    Uiso 11.600000 C
   C          1.0    -0.159822     0.392024     0.007154    Uiso 12.310000 C
   O          1.0    -0.139471     0.401149     0.013306    Uiso  8.140000 O
   CB         1.0    -0.182811     0.415607     0.010908    Uiso 11.530000 C
   CG         1.0    -0.167160     0.440372     0.018332    Uiso 21.030001 C
   CD         1.0    -0.158291     0.462566     0.008572    Uiso 16.100000 C
   OE1        1.0    -0.171653     0.462246    -0.001053    Uiso 19.299999 O
   NE2        1.0    -0.135545     0.481942     0.010949    Uiso 14.340000 N
   H          0.0200 -0.201992     0.391780    -0.010657    Uiso 12.500000 H
   D          0.9800 -0.201992     0.391780    -0.010657    Uiso 12.500000 D
   DA         1.0    -0.151221     0.426722    -0.002357    Uiso 11.220000 D
   DB2        1.0    -0.197487     0.416667     0.005256    Uiso 11.130000 D
   DB3        1.0    -0.191182     0.400717     0.018677    Uiso 11.130000 D
   DG2        1.0    -0.178434     0.442344     0.026477    Uiso 22.530001 D
   DG3        1.0    -0.150714     0.440710     0.022848    Uiso 22.530001 D
   HE21       0.6800 -0.125102     0.481398     0.019062    Uiso 14.500000 H
   DE21       0.3200 -0.125102     0.481398     0.019062    Uiso 14.500000 D
   HE22       0.5400 -0.128511     0.497376     0.004661    Uiso 14.500000 H
   DE22       0.4600 -0.128511     0.497376     0.004661    Uiso 14.500000 D
   N          1.0    -0.175231     0.367352     0.006173    Uiso  9.290000 N
   CA         1.0    -0.169005     0.349008     0.011815    Uiso  8.580000 C
   C          1.0    -0.177592     0.327867     0.001178    Uiso  6.960000 C
   O          1.0    -0.197564     0.308020     0.002628    Uiso 11.510000 O
   CB         1.0    -0.181526     0.338926     0.025987    Uiso  6.700000 C
   OG1        1.0    -0.207390     0.332335     0.025257    Uiso  7.400000 O
   CG2        1.0    -0.168276     0.358434     0.037478    Uiso 11.930000 C
   H          0.2200 -0.192354     0.359316     0.001439    Uiso  8.090000 H
   D          0.7800 -0.192354     0.359316     0.001439    Uiso  8.090000 D
   DA         1.0    -0.148809     0.357626     0.013223    Uiso  7.240000 D
   DB         1.0    -0.180371     0.322309     0.028646    Uiso  4.980000 D
   HG1A       0.5400 -0.215606     0.324618     0.034016    Uiso  5.820000 H
   DG1B       0.4600 -0.215606     0.324618     0.034016    Uiso  5.820000 D
   DG21       1.0    -0.178557     0.351562     0.047260    Uiso 11.260000 D
   DG22       1.0    -0.149246     0.361795     0.038949    Uiso 11.260000 D
   DG23       1.0    -0.167334     0.376121     0.034777    Uiso 11.260000 D
   N          1.0    -0.162719     0.331791    -0.009771    Uiso  7.660000 N
   CA         1.0    -0.172139     0.314122    -0.021555    Uiso  5.510000 C
   C          1.0    -0.171897     0.289826    -0.019177    Uiso 11.070000 C
   O          1.0    -0.190133     0.269680    -0.022837    Uiso 10.560000 O
   CB         1.0    -0.154441     0.329387    -0.033474    Uiso 10.290000 C
   CG         1.0    -0.130831     0.347600    -0.026529    Uiso  8.480000 C
   CD         1.0    -0.137986     0.353777    -0.012701    Uiso  8.280000 C
   DA         1.0    -0.191264     0.309466    -0.024037    Uiso  4.020000 D
   DB2        1.0    -0.151397     0.316939    -0.040273    Uiso  9.760000 D
   DB3        1.0    -0.162431     0.339001    -0.039220    Uiso  9.760000 D
   DG2        1.0    -0.119200     0.339057    -0.024944    Uiso  7.580000 D
   DG3        1.0    -0.121071     0.364292    -0.033025    Uiso  7.580000 D
   DD2        1.0    -0.124347     0.355918    -0.004776    Uiso  7.350000 D
   DD3        1.0    -0.139591     0.370601    -0.013494    Uiso  7.350000 D
   N          1.0    -0.151639     0.291122    -0.013254    Uiso  7.930000 N
   CA         1.0    -0.150498     0.268234    -0.011179    Uiso  9.080000 C
   C          1.0    -0.172345     0.249646    -0.002190    Uiso  8.770000 C
   O          1.0    -0.186774     0.228072    -0.006361    Uiso 10.680000 O
   CB         1.0    -0.125424     0.274317    -0.004620    Uiso  7.990000 C
   CG         1.0    -0.103637     0.287517    -0.014651    Uiso  7.710000 C
   OD1        1.0    -0.107271     0.289582    -0.027082    Uiso  8.220000 O
   ND2        1.0    -0.080862     0.296060    -0.009343    Uiso  8.130000 N
   H          0.0000 -0.136289     0.307157    -0.009844    Uiso  6.660000 H
   D          1.0    -0.136289     0.307157    -0.009844    Uiso  6.660000 D
   DA         1.0    -0.151904     0.259503    -0.021273    Uiso  8.040000 D
   DB2        1.0    -0.121781     0.286578     0.004328    Uiso  6.730000 D
   DB3        1.0    -0.126306     0.256912    -0.001356    Uiso  6.730000 D
   HD21       0.2000 -0.067030     0.314066    -0.011283    Uiso  6.900000 H
   DD21       0.8000 -0.067030     0.314066    -0.011283    Uiso  6.900000 D
   HD22       0.4400 -0.077223     0.284607    -0.003295    Uiso  6.900000 H
   DD22       0.5600 -0.077223     0.284607    -0.003295    Uiso  6.900000 D
   N          1.0    -0.175401     0.257907     0.010105    Uiso  8.490000 N
   CA         1.0    -0.195380     0.241103     0.019542    Uiso 10.650000 C
   C          1.0    -0.221054     0.230926     0.012785    Uiso 10.920000 C
   O          1.0    -0.237539     0.208752     0.014401    Uiso 13.880000 O
   CB         1.0    -0.194139     0.254772     0.033067    Uiso 12.030000 C
   CG         1.0    -0.210825     0.237498     0.044507    Uiso 14.680000 C
   CD         1.0    -0.220066     0.250885     0.053975    Uiso 18.200001 C
   NE         1.0    -0.237061     0.234099     0.064685    Uiso 19.320000 N
   CZ         1.0    -0.240874     0.241854     0.076907    Uiso 14.240000 C
   NH1        1.0    -0.229168     0.266112     0.079889    Uiso  7.420000 N
   NH2        1.0    -0.256585     0.225293     0.086062    Uiso  8.410000 N
   H          0.1600 -0.164682     0.275801     0.013702    Uiso  7.620000 H
   D          0.8400 -0.164682     0.275801     0.013702    Uiso  7.620000 D
   DA         1.0    -0.192903     0.225181     0.022076    Uiso 10.220000 D
   DB2        1.0    -0.174857     0.264329     0.036884    Uiso 11.870000 D
   DB3        1.0    -0.200067     0.268478     0.030971    Uiso 11.870000 D
   DG2        1.0    -0.227120     0.221200     0.040075    Uiso 15.050000 D
   DG3        1.0    -0.199675     0.231733     0.050691    Uiso 15.050000 D
   DD2        1.0    -0.203739     0.266206     0.059085    Uiso 19.280001 D
   DD3        1.0    -0.230289     0.257757     0.047833    Uiso 19.280001 D
   HE         0.1100 -0.251961     0.217989     0.061066    Uiso 20.620001 H
   DE         0.8900 -0.251961     0.217989     0.061066    Uiso 20.620001 D
   HH11       0.8300 -0.217285     0.279049     0.072923    Uiso  6.330000 H
   DH11       0.1700 -0.217285     0.279049     0.072923    Uiso  6.330000 D
   HH12       0.5800 -0.232104     0.272045     0.089264    Uiso  6.330000 H
   DH12       0.4200 -0.232104     0.272045     0.089264    Uiso  6.330000 D
   HH21       0.7200 -0.265347     0.206761     0.083716    Uiso  7.520000 H
   DH21       0.2800 -0.265347     0.206761     0.083716    Uiso  7.520000 D
   HH22       0.1400 -0.259687     0.231057     0.095427    Uiso  7.520000 H
   DH22       0.8600 -0.259687     0.231057     0.095427    Uiso  7.520000 D
   N          1.0    -0.224867     0.246942     0.005277    Uiso 12.320000 N
   CA         1.0    -0.249074     0.238756    -0.001345    Uiso 13.910000 C
   C          1.0    -0.255018     0.218478    -0.012190    Uiso 14.030000 C
   O          1.0    -0.276542     0.200340    -0.013254    Uiso 13.540000 O
   CB         1.0    -0.249465     0.261193    -0.007915    Uiso 11.930000 C
   H          0.1400 -0.211892     0.265380     0.003702    Uiso 11.580000 H
   D          0.8600 -0.211892     0.265380     0.003702    Uiso 11.580000 D
   DA         1.0    -0.263685     0.230607     0.006570    Uiso 13.480000 D
   DB1        1.0    -0.266139     0.254283    -0.014432    Uiso 11.120000 D
   DB2        1.0    -0.250031     0.273003     0.000386    Uiso 11.120000 D
   DB3        1.0    -0.232612     0.271745    -0.014255    Uiso 11.120000 D
   N          1.0    -0.236371     0.220975    -0.020366    Uiso 14.820000 N
   CA         1.0    -0.241525     0.202049    -0.030940    Uiso 12.870000 C
   C          1.0    -0.243478     0.178241    -0.024808    Uiso 11.600000 C
   O          1.0    -0.251187     0.159408    -0.032254    Uiso  6.290000 O
   CB         1.0    -0.221455     0.212920    -0.042390    Uiso 19.840000 C
   CG         1.0    -0.195637     0.217858    -0.038385    Uiso 21.850000 C
   CD         1.0    -0.178808     0.224655    -0.051254    Uiso 25.340000 C
   CE         1.0    -0.173223     0.249646    -0.057667    Uiso 22.299999 C
   NZ         1.0    -0.161285     0.253457    -0.071620    Uiso 40.270000 N
   H          0.0000 -0.218160     0.235282    -0.019938    Uiso 15.290000 H
   D          1.0    -0.218160     0.235282    -0.019938    Uiso 15.290000 D
   DA         1.0    -0.259409     0.196979    -0.035841    Uiso 12.950000 D
   DB2        1.0    -0.227819     0.200096    -0.051254    Uiso 21.309999 D
   DB3        1.0    -0.219531     0.230851    -0.045539    Uiso 21.309999 D
   DG2        1.0    -0.187199     0.233498    -0.031075    Uiso 23.730000 D
   DG3        1.0    -0.197153     0.200941    -0.033776    Uiso 23.730000 D
   DD2        1.0    -0.161012     0.226101    -0.048313    Uiso 27.920000 D
   DD3        1.0    -0.188125     0.210085    -0.059148    Uiso 27.920000 D
   DE2        1.0    -0.190551     0.250209    -0.058960    Uiso 24.260000 D
   DE3        1.0    -0.160290     0.264911    -0.050909    Uiso 24.260000 D
   HZ1A       0.0000 -0.154591     0.271820    -0.074956    Uiso 45.820000 H
   DZ1B       1.0    -0.154591     0.271820    -0.074956    Uiso 45.820000 D
   HZ2A       0.5000 -0.146413     0.249965    -0.071109    Uiso 45.820000 H
   DZ2B       0.5000 -0.146413     0.249965    -0.071109    Uiso 45.820000 D
   HZ3A       0.8700 -0.174327     0.241290    -0.078825    Uiso 45.820000 H
   DZ3B       0.1300 -0.174327     0.241290    -0.078825    Uiso 45.820000 D
   N          1.0    -0.236954     0.178541    -0.011460    Uiso 13.940000 N
   CA         1.0    -0.244359     0.155146    -0.003994    Uiso  9.930000 C
   C          1.0    -0.272185     0.141834    -0.000428    Uiso 12.900000 C
   O          1.0    -0.285791     0.119077    -0.002565    Uiso  7.950000 O
   CB         1.0    -0.228867     0.160178     0.009333    Uiso 12.890000 C
   CG         1.0    -0.201722     0.167933     0.006893    Uiso 16.590000 C
   CD         1.0    -0.190314     0.161286     0.019156    Uiso  9.080000 C
   NE         1.0    -0.181265     0.179611     0.030533    Uiso 16.490000 N
   CZ         1.0    -0.162987     0.203419     0.029292    Uiso 19.920000 C
   NH1        1.0    -0.156078     0.218440     0.040294    Uiso 14.480000 N
   NH2        1.0    -0.151737     0.212488     0.017154    Uiso 15.410000 N
   H          0.1700 -0.226721     0.194388    -0.005673    Uiso 13.600000 H
   D          0.8300 -0.226721     0.194388    -0.005673    Uiso 13.600000 D
   DA         1.0    -0.240884     0.142810    -0.010626    Uiso  8.780000 D
   DB2        1.0    -0.229135     0.175349     0.015058    Uiso 12.340000 D
   DB3        1.0    -0.237350     0.143148     0.015663    Uiso 12.340000 D
   DG2        1.0    -0.200275     0.158338    -0.002325    Uiso 16.780001 D
   DG3        1.0    -0.191367     0.188154     0.005339    Uiso 16.780001 D
   DD2        1.0    -0.204566     0.143449     0.023505    Uiso  7.770000 D
   DD3        1.0    -0.174504     0.159540     0.015433    Uiso  7.770000 D
   HE         0.0000 -0.193393     0.175875     0.038646    Uiso 16.660000 H
   DE         1.0    -0.193393     0.175875     0.038646    Uiso 16.660000 D
   HH11       0.0600 -0.164728     0.211775     0.049658    Uiso 14.250000 H
   DH11       0.9400 -0.164728     0.211775     0.049658    Uiso 14.250000 D
   HH12       0.0000 -0.142101     0.236671     0.039397    Uiso 14.250000 H
   DH12       1.0    -0.142101     0.236671     0.039397    Uiso 14.250000 D
   HH21       0.3900 -0.157047     0.201185     0.008572    Uiso 15.360000 H
   DH21       0.6100 -0.157047     0.201185     0.008572    Uiso 15.360000 D
   HH22       0.5000 -0.138003     0.230851     0.016414    Uiso 15.360000 H
   DH22       0.5000 -0.138003     0.230851     0.016414    Uiso 15.360000 D
   N          1.0    -0.280952     0.155878     0.005078    Uiso 13.750000 N
   CA         1.0    -0.307298     0.144876     0.008947    Uiso 11.740000 C
   C          1.0    -0.323743     0.136539    -0.004015    Uiso 10.200000 C
   O          1.0    -0.343670     0.116261    -0.004307    Uiso  7.730000 O
   CB         1.0    -0.311262     0.163745     0.017540    Uiso 11.150000 C
   CG1        1.0    -0.338897     0.155109     0.018666    Uiso  6.600000 C
   CG2        1.0    -0.300057     0.166667     0.031993    Uiso 10.500000 C
   H          0.0000 -0.270430     0.174711     0.006851    Uiso 13.680000 H
   D          1.0    -0.270430     0.174711     0.006851    Uiso 13.680000 D
   DA         1.0    -0.312649     0.128353     0.015381    Uiso 11.260000 D
   DB         1.0    -0.302016     0.181977     0.012357    Uiso 10.560000 D
   DG11       1.0    -0.341396     0.168646     0.024777    Uiso  5.100000 D
   DG12       1.0    -0.346682     0.153588     0.008269    Uiso  5.100000 D
   DG13       1.0    -0.348584     0.136839     0.023776    Uiso  5.100000 D
   DG21       1.0    -0.296790     0.184624     0.036248    Uiso  9.780000 D
   DG22       1.0    -0.313346     0.151316     0.038521    Uiso  9.780000 D
   DG23       1.0    -0.282415     0.166667     0.031336    Uiso  9.780000 D
   N          1.0    -0.315795     0.152142    -0.014891    Uiso 14.160000 N
   CA         1.0    -0.330059     0.145533    -0.027874    Uiso 10.590000 C
   C          1.0    -0.332340     0.121556    -0.033860    Uiso  9.180000 C
   O          1.0    -0.352355     0.105071    -0.038928    Uiso  9.050000 O
   CB         1.0    -0.317627     0.167632    -0.038219    Uiso 13.310000 C
   CG1        1.0    -0.321805     0.188999    -0.033088    Uiso 14.010000 C
   CG2        1.0    -0.327484     0.159690    -0.053256    Uiso  8.210000 C
   CD1        1.0    -0.310639     0.212601    -0.042233    Uiso 12.310000 C
   H          0.0000 -0.299747     0.169247    -0.014985    Uiso 13.660000 H
   D          1.0    -0.299747     0.169247    -0.014985    Uiso 13.660000 D
   DA         1.0    -0.348896     0.142134    -0.025674    Uiso  9.390000 D
   DB         1.0    -0.297575     0.174241    -0.038229    Uiso 12.650000 D
   DG12       1.0    -0.341960     0.181827    -0.032400    Uiso 13.490000 D
   DG13       1.0    -0.313515     0.194782    -0.022754    Uiso 13.490000 D
   DG21       1.0    -0.312518     0.171444    -0.060503    Uiso  6.520000 D
   DG22       1.0    -0.333333     0.140182    -0.055258    Uiso  6.520000 D
   DG23       1.0    -0.343458     0.162506    -0.054830    Uiso  6.520000 D
   DD11       1.0    -0.317656     0.224711    -0.038490    Uiso 11.440000 D
   DD12       1.0    -0.290242     0.222533    -0.041462    Uiso 11.440000 D
   DD13       1.0    -0.316464     0.207325    -0.053006    Uiso 11.440000 D
   N          1.0    -0.311904     0.119209    -0.033401    Uiso 12.640000 N
   CA         1.0    -0.312867     0.096340    -0.038385    Uiso  7.560000 C
   C          1.0    -0.332016     0.073489    -0.030210    Uiso  8.570000 C
   O          1.0    -0.345474     0.053305    -0.036206    Uiso 10.350000 O
   CB         1.0    -0.286817     0.098912    -0.037447    Uiso  9.560000 C
   OG1        1.0    -0.270148     0.117876    -0.046999    Uiso  4.990000 O
   CG2        1.0    -0.287780     0.074222    -0.040961    Uiso  8.140000 C
   H          0.0000 -0.294778     0.132615    -0.029762    Uiso 12.550000 H
   D          1.0    -0.294778     0.132615    -0.029762    Uiso 12.550000 D
   DA         1.0    -0.318586     0.093617    -0.049293    Uiso  6.460000 D
   DB         1.0    -0.279678     0.104150    -0.026842    Uiso  8.850000 D
   HG1A       0.7300 -0.270486     0.133460    -0.045445    Uiso  3.370000 H
   DG1B       0.2700 -0.270486     0.133460    -0.045445    Uiso  3.370000 D
   DG21       1.0    -0.269476     0.076099    -0.039022    Uiso  7.150000 D
   DG22       1.0    -0.301620     0.058900    -0.034569    Uiso  7.150000 D
   DG23       1.0    -0.292533     0.069659    -0.051921    Uiso  7.150000 D
   N          1.0    -0.333333     0.076193    -0.016476    Uiso  7.290000 N
   CA         1.0    -0.352060     0.055352    -0.008092    Uiso 10.830000 C
   C          1.0    -0.378536     0.046790    -0.013369    Uiso 11.270000 C
   O          1.0    -0.393297     0.024390    -0.015892    Uiso 10.920000 O
   CB         1.0    -0.349422     0.062937     0.007310    Uiso  5.200000 C
   OG1        1.0    -0.324202     0.071555     0.011877    Uiso  5.980000 O
   CG2        1.0    -0.367137     0.040612     0.016351    Uiso  7.970000 C
   H          0.4000 -0.322259     0.092190    -0.011002    Uiso  5.770000 H
   D          0.6000 -0.322259     0.092190    -0.011002    Uiso  5.770000 D
   DA         1.0    -0.348769     0.039561    -0.008937    Uiso 10.010000 D
   DB         1.0    -0.353896     0.077827     0.008697    Uiso  3.250000 D
   HG1A       0.0000 -0.312091     0.083779     0.005308    Uiso  4.190000 H
   DG1B       1.0    -0.312091     0.083779     0.005308    Uiso  4.190000 D
   DG21       1.0    -0.364952     0.046414     0.027238    Uiso  6.580000 D
   DG22       1.0    -0.386463     0.033797     0.013087    Uiso  6.580000 D
   DG23       1.0    -0.362668     0.025648     0.015194    Uiso  6.580000 D
   N          1.0    -0.384898     0.064439    -0.015121    Uiso  7.590000 N
   CA         1.0    -0.409204     0.058299    -0.021065    Uiso 12.790000 C
   C          1.0    -0.413367     0.045551    -0.035226    Uiso  9.440000 C
   O          1.0    -0.433405     0.026286    -0.037927    Uiso 13.480000 O
   CB         1.0    -0.411207     0.082032    -0.022472    Uiso  7.830000 C
   CG         1.0    -0.416667     0.090857    -0.009104    Uiso  9.920000 C
   CD1        1.0    -0.401825     0.115397    -0.004661    Uiso  9.830000 C
   CD2        1.0    -0.437538     0.074897    -0.001178    Uiso 10.670000 C
   CE1        1.0    -0.407120     0.123734     0.007602    Uiso  8.310000 C
   CE2        1.0    -0.442967     0.083333     0.011085    Uiso 13.750000 C
   CZ         1.0    -0.427724     0.107568     0.015465    Uiso  5.970000 C
   H          0.0900 -0.373837     0.082821    -0.012430    Uiso  6.410000 H
   D          0.9100 -0.373837     0.082821    -0.012430    Uiso  6.410000 D
   DA         1.0    -0.424091     0.045175    -0.014161    Uiso 12.650000 D
   DB2        1.0    -0.393647     0.097185    -0.026602    Uiso  6.690000 D
   DB3        1.0    -0.426482     0.078052    -0.029636    Uiso  6.690000 D
   DD1        1.0    -0.385658     0.128090    -0.010803    Uiso  9.100000 D
   DD2        1.0    -0.449469     0.055783    -0.004578    Uiso 10.100000 D
   DE1        1.0    -0.395145     0.142904     0.011002    Uiso  7.280000 D
   DE2        1.0    -0.459146     0.070316     0.017185    Uiso 13.800000 D
   DZ         1.0    -0.431902     0.114008     0.025038    Uiso  4.470000 D
   N          1.0    -0.394754     0.056272    -0.044548    Uiso 13.130000 N
   CA         1.0    -0.398285     0.046283    -0.058720    Uiso 11.640000 C
   C          1.0    -0.402541     0.019658    -0.058803    Uiso 10.000000 C
   O          1.0    -0.417183     0.003999    -0.067250    Uiso  7.060000 O
   CB         1.0    -0.375613     0.063238    -0.067845    Uiso 13.150000 C
   CG         1.0    -0.380597     0.057041    -0.083333    Uiso  8.600000 C
   CD         1.0    -0.357789     0.072381    -0.092538    Uiso 23.770000 C
   NE         1.0    -0.336946     0.093091    -0.085165    Uiso 27.389999 N
   CZ         1.0    -0.317765     0.092040    -0.079482    Uiso 23.170000 C
   NH1        1.0    -0.316316     0.071199    -0.080139    Uiso 22.139999 N
   NH2        1.0    -0.299836     0.112093    -0.073048    Uiso 31.270000 N
   H          0.0000 -0.377492     0.071480    -0.042630    Uiso 13.110000 H
   D          1.0    -0.377492     0.071480    -0.042630    Uiso 13.110000 D
   DA         1.0    -0.414726     0.045889    -0.063277    Uiso 11.320000 D
   DB2        1.0    -0.370614     0.082765    -0.066406    Uiso 13.130000 D
   DB3        1.0    -0.360026     0.060590    -0.064831    Uiso 13.130000 D
   DG2        1.0    -0.386555     0.037289    -0.084759    Uiso  7.670000 D
   DG3        1.0    -0.395356     0.060759    -0.086594    Uiso  7.670000 D
   DD2        1.0    -0.351429     0.060158    -0.096887    Uiso 25.870001 D
   DD3        1.0    -0.363287     0.080474    -0.100985    Uiso 25.870001 D
   HE         0.3600 -0.336218     0.110027    -0.085134    Uiso 30.219999 H
   DE         0.6400 -0.336218     0.110027    -0.085134    Uiso 30.219999 D
   HH11       0.0000 -0.330054     0.055690    -0.085061    Uiso 23.920000 H
   DH11       1.0    -0.330054     0.055690    -0.085061    Uiso 23.920000 D
   HH12       0.0000 -0.301461     0.070729    -0.075718    Uiso 23.920000 H
   DH12       1.0    -0.301461     0.070729    -0.075718    Uiso 23.920000 D
   HH21       0.1400 -0.300811     0.128127    -0.072475    Uiso 34.869999 H
   DH21       0.8600 -0.300811     0.128127    -0.072475    Uiso 34.869999 D
   HH22       1.0    -0.285092     0.111436    -0.068648    Uiso 34.869999 H
   DH22       0.0000 -0.285092     0.111436    -0.068648    Uiso 34.869999 D
   N          1.0    -0.389907     0.014195    -0.049502    Uiso 13.070000 N
   CA         1.0    -0.389051    -0.009069    -0.050086    Uiso 10.310000 C
   C          1.0    -0.406251    -0.028802    -0.039595    Uiso 13.980000 C
   O          1.0    -0.416667    -0.051221    -0.042838    Uiso 10.520000 O
   CB         1.0    -0.362098    -0.003455    -0.047760    Uiso  9.640000 C
   OG1        1.0    -0.351906     0.011660    -0.035518    Uiso  9.590000 O
   CG2        1.0    -0.345945     0.010477    -0.060117    Uiso  8.080000 C
   H          0.6000 -0.380004     0.025610    -0.041399    Uiso 12.930000 H
   D          0.4000 -0.380004     0.025610    -0.041399    Uiso 12.930000 D
   DA         1.0    -0.394846    -0.017180    -0.060462    Uiso  9.610000 D
   DB         1.0    -0.361965    -0.021010    -0.046498    Uiso  8.800000 D
   HG1A       0.6100 -0.354686     0.026718    -0.036039    Uiso  8.740000 H
   DG1B       0.3900 -0.354686     0.026718    -0.036039    Uiso  8.740000 D
   DG21       1.0    -0.328639     0.009707    -0.059857    Uiso  6.930000 D
   DG22       1.0    -0.356024     0.001896    -0.069742    Uiso  6.930000 D
   DG23       1.0    -0.341482     0.030004    -0.059836    Uiso  6.930000 D
   N          1.0    -0.409229    -0.021198    -0.027113    Uiso 15.120000 N
   CA         1.0    -0.423614    -0.039204    -0.016320    Uiso 14.600000 C
   C          1.0    -0.409756    -0.050545    -0.009197    Uiso 16.400000 C
   O          1.0    -0.421559    -0.069922    -0.002263    Uiso 15.140000 O
   H          0.6000 -0.401832    -0.002892    -0.024214    Uiso 14.760000 H
   D          0.4000 -0.401832    -0.002892    -0.024214    Uiso 14.760000 D
   DA2        1.0    -0.428923    -0.029985    -0.008426    Uiso 14.140000 D
   DA3        1.0    -0.440736    -0.054488    -0.020846    Uiso 14.140000 D
   N          1.0    -0.384658    -0.038265    -0.011367    Uiso 15.170000 N
   CA         1.0    -0.367643    -0.046546    -0.005047    Uiso 15.390000 C
   C          1.0    -0.347642    -0.025892     0.004077    Uiso 14.840000 C
   O          1.0    -0.346666    -0.005501     0.005662    Uiso 12.780000 O
   CB         1.0    -0.355125    -0.054094    -0.016372    Uiso 20.520000 C
   OG1        1.0    -0.337165    -0.032126    -0.023745    Uiso 18.670000 O
   CG2        1.0    -0.374421    -0.072588    -0.026696    Uiso 25.270000 C
   H          0.3200 -0.373970    -0.021930    -0.016873    Uiso 14.230000 H
   D          0.6800 -0.373970    -0.021930    -0.016873    Uiso 14.230000 D
   DA         1.0    -0.378933    -0.062881     0.001491    Uiso 14.490000 D
   DB         1.0    -0.345571    -0.063050    -0.011533    Uiso 20.660000 D
   HG1A       0.0800 -0.344470    -0.020785    -0.025903    Uiso 18.440001 H
   DG1B       0.9200 -0.344470    -0.020785    -0.025903    Uiso 18.440001 D
   DG21       1.0    -0.364815    -0.073377    -0.036070    Uiso 26.360001 D
   DG22       1.0    -0.384607    -0.091270    -0.022076    Uiso 26.360001 D
   DG23       1.0    -0.387779    -0.066655    -0.029647    Uiso 26.360001 D
   N          1.0    -0.331420    -0.031431     0.010021    Uiso 14.690000 N
   CA         1.0    -0.310341    -0.013631     0.018510    Uiso 16.920000 C
   C          1.0    -0.285428    -0.002309     0.010710    Uiso 14.080000 C
   O          1.0    -0.265500     0.007661     0.017310    Uiso 14.230000 O
   CB         1.0    -0.308676    -0.026399     0.031805    Uiso 16.870001 C
   CG         1.0    -0.329528    -0.033046     0.041931    Uiso 12.540000 C
   CD1        1.0    -0.347058    -0.056497     0.046186    Uiso 12.820000 C
   CD2        1.0    -0.335050    -0.015960     0.049116    Uiso 16.840000 C
   NE1        1.0    -0.363186    -0.055126     0.055602    Uiso 14.470000 N
   CE2        1.0    -0.356197    -0.030417     0.057573    Uiso 11.830000 C
   CE3        1.0    -0.324128     0.010177     0.049210    Uiso 10.540000 C
   CZ2        1.0    -0.366627    -0.019602     0.066020    Uiso 12.090000 C
   CZ3        1.0    -0.334503     0.020841     0.057604    Uiso  7.690000 C
   CH2        1.0    -0.355538     0.005990     0.065895    Uiso 11.850000 C
   H          0.0000 -0.332471    -0.048461     0.009104    Uiso 14.140000 H
   D          1.0    -0.332471    -0.048461     0.009104    Uiso 14.140000 D
   DA         1.0    -0.313470     0.001671     0.021534    Uiso 16.830000 D
   DB2        1.0    -0.308949    -0.043692     0.028959    Uiso 16.760000 D
   DB3        1.0    -0.291099    -0.013782     0.037092    Uiso 16.760000 D
   DD1        1.0    -0.348113    -0.073696     0.042682    Uiso 11.900000 D
   HE1A       0.0000 -0.377943    -0.070072     0.060336    Uiso 13.880000 H
   DE1B       1.0    -0.377943    -0.070072     0.060336    Uiso 13.880000 D
   DE3        1.0    -0.307887     0.021780     0.042849    Uiso  9.160000 D
   DZ2        1.0    -0.382878    -0.030999     0.072433    Uiso 11.030000 D
   DZ3        1.0    -0.326241     0.041007     0.057771    Uiso  5.740000 D
   DH2        1.0    -0.363181     0.014964     0.072339    Uiso 10.750000 D
   N          1.0    -0.286680    -0.003511    -0.003295    Uiso 14.300000 N
   CA         1.0    -0.263966     0.003023    -0.011262    Uiso 11.830000 C
   C          1.0    -0.243128     0.029966    -0.008655    Uiso 17.209999 C
   O          1.0    -0.220944     0.035149    -0.008718    Uiso 16.750000 O
   CB         1.0    -0.270053    -0.000958    -0.026842    Uiso 15.210000 C
   CG         1.0    -0.290717    -0.027488    -0.030168    Uiso 17.549999 C
   OD1        1.0    -0.294888    -0.034172    -0.042640    Uiso 13.990000 O
   OD2        1.0    -0.302660    -0.041683    -0.020282    Uiso 15.740000 O
   H          0.1700 -0.302358    -0.008787    -0.009177    Uiso 13.340000 H
   D          0.8300 -0.302358    -0.008787    -0.009177    Uiso 13.340000 D
   DA         1.0    -0.257003    -0.009426    -0.008092    Uiso 10.380000 D
   DB2        1.0    -0.276010     0.012073    -0.030429    Uiso 14.430000 D
   DB3        1.0    -0.253225     0.002422    -0.032483    Uiso 14.430000 D
   N          1.0    -0.249680     0.047334    -0.006372    Uiso  9.270000 N
   CA         1.0    -0.230687     0.073808    -0.005224    Uiso 11.280000 C
   C          1.0    -0.216933     0.080211     0.008666    Uiso 11.250000 C
   O          1.0    -0.196368     0.099682     0.009729    Uiso 18.490000 O
   CB         1.0    -0.242658     0.090256    -0.007279    Uiso 15.250000 C
   H          0.0000 -0.267677     0.043729    -0.005224    Uiso  7.960000 H
   D          1.0    -0.267677     0.043729    -0.005224    Uiso  7.960000 D
   DA         1.0    -0.216794     0.078277    -0.013421    Uiso 10.380000 D
   DB1        1.0    -0.228280     0.109971    -0.006392    Uiso 15.140000 D
   DB2        1.0    -0.251272     0.086783    -0.017582    Uiso 15.140000 D
   DB3        1.0    -0.256962     0.085712     0.000678    Uiso 15.140000 D
   N          1.0    -0.227660     0.064383     0.019240    Uiso 13.860000 N
   CA         1.0    -0.216960     0.069359     0.033203    Uiso 14.040000 C
   C          1.0    -0.207298     0.051709     0.037113    Uiso 18.480000 C
   O          1.0    -0.200717     0.051277     0.049231    Uiso 25.020000 O
   CB         1.0    -0.236468     0.066993     0.043891    Uiso  7.300000 C
   CG         1.0    -0.242991     0.087703     0.043735    Uiso  6.340000 C
   CD1        1.0    -0.229072     0.109558     0.051400    Uiso  8.800000 C
   CD2        1.0    -0.263474     0.085112     0.036237    Uiso  4.880000 C
   CE1        1.0    -0.235091     0.128447     0.051400    Uiso  6.140000 C
   CE2        1.0    -0.269646     0.103888     0.036185    Uiso  7.430000 C
   CZ         1.0    -0.255436     0.125480     0.043777    Uiso  4.290000 C
   OH         1.0    -0.261824     0.143956     0.043620    Uiso  4.550000 O
   H          0.0000 -0.243909     0.047560     0.018385    Uiso 13.930000 H
   D          1.0    -0.243909     0.047560     0.018385    Uiso 13.930000 D
   DA         1.0    -0.201324     0.088566     0.033703    Uiso 14.140000 D
   DB2        1.0    -0.253743     0.049418     0.041889    Uiso  6.060000 D
   DB3        1.0    -0.229399     0.066692     0.054246    Uiso  6.060000 D
   DD1        1.0    -0.213139     0.111961     0.057375    Uiso  7.860000 D
   DD2        1.0    -0.274701     0.068251     0.030262    Uiso  3.160000 D
   DE1        1.0    -0.223926     0.145345     0.057364    Uiso  4.670000 D
   DE2        1.0    -0.285548     0.101710     0.030252    Uiso  6.210000 D
   HH         0.2000 -0.251248     0.157399     0.050117    Uiso  2.760000 H
   DH         0.8000 -0.251248     0.157399     0.050117    Uiso  2.760000 D
   N          1.0    -0.206108     0.037308     0.027113    Uiso 22.129999 N
   CA         1.0    -0.202020     0.016410     0.030168    Uiso 29.910000 C
   C          1.0    -0.175137     0.022437     0.027738    Uiso 32.689999 C
   O          1.0    -0.166051     0.012805     0.035351    Uiso 38.889999 O
   CB         1.0    -0.219731    -0.006328     0.021294    Uiso 30.900000 C
   CG         1.0    -0.222713    -0.031056     0.026268    Uiso 30.879999 C
   CD         1.0    -0.245599    -0.053023     0.019667    Uiso 42.080002 C
   CE         1.0    -0.246792    -0.077751     0.022973    Uiso 57.169998 C
   NZ         1.0    -0.266930    -0.098743     0.014787    Uiso 30.930000 N
   H          0.0000 -0.207856     0.039730     0.016737    Uiso 21.639999 H
   D          1.0    -0.207856     0.039730     0.016737    Uiso 21.639999 D
   DA         1.0    -0.206477     0.011172     0.041107    Uiso 30.980000 D
   DB2        1.0    -0.238231    -0.007980     0.021294    Uiso 32.169998 D
   DB3        1.0    -0.212316    -0.003173     0.010710    Uiso 32.169998 D
   DG2        1.0    -0.206219    -0.032182     0.023265    Uiso 32.150002 D
   DG3        1.0    -0.225124    -0.032464     0.037562    Uiso 32.150002 D
   DD2        1.0    -0.262550    -0.053756     0.023734    Uiso 45.590000 D
   DD3        1.0    -0.244718    -0.050676     0.008374    Uiso 45.590000 D
   DE2        1.0    -0.228878    -0.076362     0.020335    Uiso 63.700001 D
   DE3        1.0    -0.250795    -0.081920     0.034047    Uiso 63.700001 D
   HZ1A       0.8400 -0.267323    -0.115397     0.017248    Uiso 32.209999 H
   DZ1B       0.1600 -0.267323    -0.115397     0.017248    Uiso 32.209999 D
   HZ2A       0.6700 -0.284188    -0.100414     0.017196    Uiso 32.209999 H
   DZ2B       0.3300 -0.284188    -0.100414     0.017196    Uiso 32.209999 D
   HZ3A       0.2700 -0.263369    -0.095100     0.004192    Uiso 32.209999 H
   DZ3B       0.7300 -0.263369    -0.095100     0.004192    Uiso 32.209999 D
   N          1.0    -0.162097     0.038209     0.017456    Uiso 38.060001 N
   CA         1.0    -0.136321     0.044818     0.014255    Uiso 51.549999 C
   C          1.0    -0.117213     0.066448     0.023192    Uiso 44.250000 C
   O          1.0    -0.095630     0.080249     0.018760    Uiso 33.639999 O
   CB         1.0    -0.130959     0.051315    -0.001220    Uiso 55.169998 C
   CG         1.0    -0.152277     0.032971    -0.010532    Uiso 55.900002 C
   OD1        1.0    -0.154841     0.012298    -0.013390    Uiso 54.360001 O
   ND2        1.0    -0.167723     0.040519    -0.015308    Uiso 56.080002 N
   H          0.0000 -0.168903     0.046809     0.011158    Uiso 37.730000 H
   D          1.0    -0.168903     0.046809     0.011158    Uiso 37.730000 D
   DA         1.0    -0.134107     0.028596     0.016309    Uiso 53.919998 D
   DB2        1.0    -0.128191     0.070053    -0.002993    Uiso 58.259998 D
   DB3        1.0    -0.114074     0.050808    -0.004109    Uiso 58.259998 D
   HD21       0.0800 -0.182388     0.029009    -0.021607    Uiso 59.349998 H
   DD21       0.9200 -0.182388     0.029009    -0.021607    Uiso 59.349998 D
   HD22       0.7200 -0.164897     0.057811    -0.012680    Uiso 59.349998 H
   DD22       0.2800 -0.164897     0.057811    -0.012680    Uiso 59.349998 D
   N          1.0    -0.124592     0.069772     0.035653    Uiso 43.029999 N
   CA         1.0    -0.108238     0.090350     0.044840    Uiso 37.840000 C
   C          1.0    -0.099893     0.080699     0.057187    Uiso 46.840000 C
   O          1.0    -0.082538     0.095213     0.064779    Uiso 62.730000 O
   CB         1.0    -0.121672     0.104132     0.049950    Uiso 35.959999 C
   CG         1.0    -0.121987     0.124184     0.040502    Uiso 31.530001 C
   CD1        1.0    -0.123457     0.118383     0.024944    Uiso 28.360001 C
   CD2        1.0    -0.143998     0.127414     0.044642    Uiso 37.770000 C
   OXT        1.0    -0.110399     0.058093     0.059878    Uiso 39.919998 O
   H          0.2700 -0.141972     0.058393     0.039741    Uiso 43.049999 H
   D          0.7300 -0.141972     0.058393     0.039741    Uiso 43.049999 D
   DA         1.0    -0.091512     0.103737     0.039136    Uiso 36.820000 D
   DB2        1.0    -0.141192     0.090068     0.052036    Uiso 34.560001 D
   DB3        1.0    -0.112807     0.113407     0.059711    Uiso 34.560001 D
   DG         1.0    -0.104880     0.142040     0.042296    Uiso 29.240000 D
   DD11       1.0    -0.123593     0.133460     0.019042    Uiso 25.440001 D
   DD12       1.0    -0.107238     0.116806     0.021888    Uiso 25.440001 D
   DD13       1.0    -0.140607     0.100733     0.022775    Uiso 25.440001 D
   DD21       1.0    -0.144455     0.141590     0.038020    Uiso 36.730000 D
   DD22       1.0    -0.161435     0.109614     0.043380    Uiso 36.730000 D
   DD23       1.0    -0.141975     0.133347     0.055498    Uiso 36.730000 D
   CL         1.0    -0.126691     0.317540     0.022170    Uiso  6.800000 Cl
   CL         1.0    -0.289337     0.392569    -0.081349    Uiso  4.890000 Cl
   O          1.0    -0.300202     0.228335     0.054935    Uiso  7.000000 O
   D1         0.5300 -0.304822     0.213014     0.059627    Uiso  5.390000 D
   D2         0.5000 -0.313953     0.231208     0.055779    Uiso  5.390000 D
   O          1.0    -0.311769     0.327998     0.328180    Uiso 15.280000 O
   D1         0.3200 -0.305661     0.328148     0.319055    Uiso 12.270000 D
   D2         1.0    -0.301174     0.325707     0.334489    Uiso 12.270000 D
   O          1.0    -0.511248     0.288287     0.114917    Uiso 10.090000 O
   D1         0.6500 -0.502849     0.281997     0.120475    Uiso  8.310000 D
   D2         0.6300 -0.515588     0.297787     0.120923    Uiso  8.310000 D
   O          1.0    -0.294978    -0.034548     0.153563    Uiso 14.230000 O
   D1         0.6800 -0.295655    -0.050113     0.155242    Uiso 14.810000 D
   D2         0.6100 -0.287374    -0.024315     0.161519    Uiso 14.810000 D
   O          1.0    -0.252505     0.234625     0.193252    Uiso  8.780000 O
   D1         1.0    -0.235251     0.245815     0.195223    Uiso  8.890000 D
   D2         1.0    -0.259884     0.244614     0.191145    Uiso  8.890000 D
   O          1.0    -0.428145     0.319211     0.117419    Uiso  9.270000 O
   D1         0.2400 -0.410432     0.329857     0.117419    Uiso  8.460000 D
   D2         0.0000 -0.435238     0.329838     0.117419    Uiso  8.460000 D
   O          1.0    -0.147198     0.520621     0.168881    Uiso 15.190000 O
   D1         0.3200 -0.145561     0.532544     0.175712    Uiso 15.580000 D
   D2         1.0    -0.145314     0.528357     0.160039    Uiso 15.580000 D
   O          1.0    -0.590595    -0.028389    -0.015360    Uiso 10.910000 O
   D1         0.6200 -0.596507    -0.020278    -0.021450    Uiso 10.280000 D
   D2         1.0    -0.594106    -0.025460    -0.006121    Uiso 10.280000 D
   O          1.0    -0.099725     0.219829     0.103644    Uiso 13.430000 O
   D1         0.5900 -0.103951     0.208939     0.111444    Uiso 13.880000 D
   D2         0.6100 -0.115081     0.216469     0.099431    Uiso 13.880000 D
   O          1.0    -0.144209     0.280194     0.064747    Uiso 13.090000 O
   D1         1.0    -0.130243     0.277622     0.065331    Uiso 11.520000 D
   D2         0.5900 -0.137989     0.296830     0.061421    Uiso 11.520000 D
   O          1.0    -0.199723     0.254077     0.209989    Uiso  7.800000 O
   D1         0.2300 -0.191735     0.251223     0.217695    Uiso  6.870000 D
   D2         0.0000 -0.195886     0.271050     0.210614    Uiso  6.870000 D
   O          1.0    -0.048832     0.367014     0.319889    Uiso 13.710000 O
   D1         0.7000 -0.032232     0.370394     0.321652    Uiso 12.950000 D
   D2         0.0000 -0.048326     0.382692     0.320067    Uiso 12.950000 D
   O          1.0    -0.431834     0.146209     0.227372    Uiso 18.620001 O
   D1         0.0000 -0.430557     0.146453     0.237237    Uiso 16.450001 D
   D2         0.2500 -0.433664     0.160141     0.224807    Uiso 16.450001 D
   O          1.0    -0.077794     0.487819     0.322840    Uiso 22.350000 O
   D1         0.0000 -0.091086     0.489171     0.318690    Uiso 21.889999 D
   D2         0.5700 -0.084086     0.478976     0.331360    Uiso 21.889999 D
   O          1.0    -0.289547     0.249646     0.306197    Uiso  3.370000 O
   D1         0.3400 -0.297806     0.231827     0.305958    Uiso  0.520000 D
   D2         0.1500 -0.272035     0.255466     0.306343    Uiso  0.520000 D
   O          1.0    -0.261169     0.492025     0.180550    Uiso  5.850000 O
   D1         0.4800 -0.267712     0.496794     0.172907    Uiso  6.460000 D
   D2         0.0000 -0.275111     0.478581     0.185139    Uiso  6.460000 D
   O          1.0    -0.315957     0.180174    -0.088857    Uiso 15.130000 O
   D1         0.0000 -0.320047     0.192548    -0.086135    Uiso 16.370001 D
   D2         0.7000 -0.327677     0.165060    -0.084373    Uiso 16.370001 D
   O          1.0    -0.250393     0.119922     0.274924    Uiso  5.480000 O
   D1         0.5000 -0.266390     0.118758     0.274913    Uiso  2.850000 D
   D2         0.7100 -0.238244     0.137196     0.275925    Uiso  2.850000 D
   O          1.0    -0.014993     0.312677     0.279231    Uiso 11.140000 O
   D1         0.6000 -0.001384     0.324806     0.284643    Uiso 10.150000 D
   D2         0.0000 -0.028667     0.315474     0.280701    Uiso 10.150000 D
   O          1.0    -0.303501     0.042227    -0.002117    Uiso  8.200000 O
   D1         0.5000 -0.304169     0.055915     0.002013    Uiso  6.630000 D
   D2         0.6700 -0.318211     0.027375     0.000740    Uiso  6.630000 D
   O          1.0    -0.176118     0.103174     0.117013    Uiso 18.299999 O
   D1         1.0    -0.180328     0.088998     0.122727    Uiso 17.969999 D
   D2         0.0000 -0.191388     0.102780     0.114875    Uiso 17.969999 D
   O          1.0    -0.160784     0.203175    -0.018781    Uiso 11.490000 O
   D1         0.2700 -0.143367     0.212188    -0.016622    Uiso 10.130000 D
   D2         0.3300 -0.167641     0.213070    -0.015527    Uiso 10.130000 D
   O          1.0    -0.158404     0.128522    -0.012315    Uiso 16.629999 O
   D1         1.0    -0.144705     0.139562    -0.006559    Uiso 17.139999 D
   D2         1.0    -0.171251     0.132615    -0.010991    Uiso 17.139999 D
   O          1.0    -0.264230     0.181939    -0.056269    Uiso  6.420000 O
   D1         0.0000 -0.264373     0.189750    -0.064789    Uiso  5.760000 D
   D2         0.3900 -0.262150     0.168083    -0.058616    Uiso  5.760000 D
   O          1.0    -0.313227     0.257701    -0.114458    Uiso  7.870000 O
   D1         1.0    -0.296182     0.269417    -0.116543    Uiso  5.360000 D
   D2         0.4500 -0.322351     0.266281    -0.115615    Uiso  5.360000 D
   O          1.0    -0.102142     0.377304     0.101371    Uiso 12.800000 O
   D1         0.7500 -0.117711     0.364442     0.097773    Uiso 13.290000 D
   D2         0.7400 -0.091558     0.370244     0.102413    Uiso 13.290000 D
   O          1.0    -0.265215     0.104751     0.215255    Uiso  5.640000 O
   D1         0.0000 -0.249556     0.106084     0.217528    Uiso  3.150000 D
   D2         0.0000 -0.268455     0.113783     0.222189    Uiso  3.150000 D
   O          1.0    -0.140810     0.177790    -0.003327    Uiso  5.870000 O
   D1         0.0000 -0.144239     0.175387     0.006382    Uiso  3.320000 D
   D2         0.4100 -0.150730     0.184324    -0.006997    Uiso  3.320000 D
   O          1.0    -0.128431     0.278580     0.035737    Uiso 10.170000 O
   D1         0.3500 -0.110718     0.289226     0.035737    Uiso  9.760000 D
   D2         0.0000 -0.135524     0.289207     0.035737    Uiso  9.760000 D
   O          1.0    -0.629211     0.116881     0.014140    Uiso 13.190000 O
   D1         0.7400 -0.618991     0.120899     0.022232    Uiso  9.790000 D
   D2         0.3700 -0.618556     0.119753     0.006351    Uiso  9.790000 D
   O          1.0    -0.391922     0.350454     0.099692    Uiso  5.930000 O
   D1         0.4600 -0.380929     0.346229     0.095010    Uiso  4.010000 D
   D2         0.0000 -0.384519     0.357195     0.108493    Uiso  4.010000 D
   O          1.0    -0.272425     0.468799     0.213732    Uiso  7.620000 O
   D1         0.2700 -0.265382     0.471371     0.222805    Uiso  7.950000 D
   D2         0.5000 -0.259887     0.481191     0.207872    Uiso  7.950000 D
   O          1.0    -0.351715     0.126156    -0.111892    Uiso  9.290000 O
   D1         0.3300 -0.363472     0.108657    -0.112111    Uiso  7.360000 D
   D2         0.5100 -0.336407     0.127958    -0.108462    Uiso  7.360000 D
   O          1.0    -0.312596     0.275970     0.159861    Uiso 11.110000 O
   D1         0.4600 -0.302026     0.293694     0.159893    Uiso 13.970000 D
   D2         0.4000 -0.324729     0.272158     0.152749    Uiso 13.970000 D
   O          1.0    -0.211360     0.116299     0.184065    Uiso 12.050000 O
   D1         1.0    -0.204164     0.106366     0.186682    Uiso 10.440000 D
   D2         0.4800 -0.228336     0.105014     0.181604    Uiso 10.440000 D
   O          1.0    -0.100470     0.168552     0.104280    Uiso  8.750000 O
   D1         0.6000 -0.082764     0.175931     0.104906    Uiso  8.820000 D
   D2         0.0000 -0.107536     0.152405     0.108462    Uiso  8.820000 D

